  Page 1                                    Mon Apr 01 13:18:30 2019

  ******************************************************************
  *                           E P A N E T                          *
  *                   Hydraulic and Water Quality                  *
  *                   Analysis for Pipe Networks                   *
  *                         Version 2.1                            *
  ******************************************************************
  
  Analysis begun Mon Apr 01 13:18:30 2019

  WARNING: Negative pressures at 0:00:00 hrs.
  
  WARNING: Negative pressures at 0:00:00 hrs.
  
  WARNING: Negative pressures at 0:00:00 hrs.
  
  WARNING: Negative pressures at 0:00:00 hrs.
  
  WARNING: Negative pressures at 0:00:00 hrs.
  
  WARNING: Negative pressures at 0:00:00 hrs.
  
     0:00:00: System ill-conditioned at node 15
     0:00:00: Reservoir 1 is emptying
   
  System Error 110: cannot solve network hydraulic equations.
  WARNING: Negative pressures at 0:00:00 hrs.
  
     0:00:00: System ill-conditioned at node 9
     0:00:00: Reservoir 1 is emptying
   
  System Error 110: cannot solve network hydraulic equations.
     0:00:00: System ill-conditioned at node 8
     0:00:00: Reservoir 1 is emptying
   
  System Error 110: cannot solve network hydraulic equations.
     0:00:00: System ill-conditioned at node 5
     0:00:00: Reservoir 1 is emptying
   
  System Error 110: cannot solve network hydraulic equations.
     0:00:00: System ill-conditioned at node 14
     0:00:00: Reservoir 1 is emptying
   
  System Error 110: cannot solve network hydraulic equations.
     0:00:00: System ill-conditioned at node 15
     0:00:00: Reservoir 1 is emptying
   
  System Error 110: cannot solve network hydraulic equations.
     0:00:00: System ill-conditioned at node 5
     0:00:00: Reservoir 1 is emptying
   
  System Error 110: cannot solve network hydraulic equations.
  WARNING: Negative pressures at 0:00:00 hrs.
  
     0:00:00: System ill-conditioned at node 12
     0:00:00: Reservoir 1 is emptying
   
  System Error 110: cannot solve network hydraulic equations.
  WARNING: Negative pressures at 0:00:00 hrs.
  
     0:00:00: System ill-conditioned at node 9
     0:00:00: Reservoir 1 is emptying
   
  System Error 110: cannot solve network hydraulic equations.
     0:00:00: System ill-conditioned at node 9
     0:00:00: Reservoir 1 is emptying
   
  System Error 110: cannot solve network hydraulic equations.
     0:00:00: System ill-conditioned at node 12
     0:00:00: Reservoir 1 is emptying
   
  System Error 110: cannot solve network hydraulic equations.
     0:00:00: System ill-conditioned at node 9
     0:00:00: Reservoir 1 is emptying
   
  System Error 110: cannot solve network hydraulic equations.
     0:00:00: System ill-conditioned at node 2
     0:00:00: Reservoir 1 is emptying
   
  System Error 110: cannot solve network hydraulic equations.
     0:00:00: System ill-conditioned at node 15
     0:00:00: Reservoir 1 is emptying
   
  System Error 110: cannot solve network hydraulic equations.
     0:00:00: System ill-conditioned at node 12
     0:00:00: Reservoir 1 is emptying
   
  System Error 110: cannot solve network hydraulic equations.
     0:00:00: System ill-conditioned at node 9
     0:00:00: Reservoir 1 is emptying
   
  System Error 110: cannot solve network hydraulic equations.
     0:00:00: System ill-conditioned at node 15
     0:00:00: Reservoir 1 is emptying
   
  System Error 110: cannot solve network hydraulic equations.
  WARNING: Negative pressures at 0:00:00 hrs.
  
     0:00:00: System ill-conditioned at node 8
     0:00:00: Reservoir 1 is emptying
   
  System Error 110: cannot solve network hydraulic equations.
     0:00:00: System ill-conditioned at node 5
     0:00:00: Reservoir 1 is emptying
   
  System Error 110: cannot solve network hydraulic equations.
     0:00:00: System ill-conditioned at node 10
     0:00:00: Reservoir 1 is emptying
   
  System Error 110: cannot solve network hydraulic equations.
     0:00:00: System ill-conditioned at node 15
     0:00:00: Reservoir 1 is emptying
   
  System Error 110: cannot solve network hydraulic equations.
     0:00:00: System ill-conditioned at node 9
     0:00:00: Reservoir 1 is emptying
   
  System Error 110: cannot solve network hydraulic equations.
  WARNING: Negative pressures at 0:00:00 hrs.
  
     0:00:00: System ill-conditioned at node 2
     0:00:00: Reservoir 1 is emptying
   
  System Error 110: cannot solve network hydraulic equations.
     0:00:00: System ill-conditioned at node 12
     0:00:00: Reservoir 1 is emptying
   
  System Error 110: cannot solve network hydraulic equations.
     0:00:00: System ill-conditioned at node 9
     0:00:00: Reservoir 1 is emptying
   
  System Error 110: cannot solve network hydraulic equations.
     0:00:00: System ill-conditioned at node 12
     0:00:00: Reservoir 1 is emptying
   
  System Error 110: cannot solve network hydraulic equations.
     0:00:00: System ill-conditioned at node 9
     0:00:00: Reservoir 1 is emptying
   
  System Error 110: cannot solve network hydraulic equations.
     0:00:00: System ill-conditioned at node 8
     0:00:00: Reservoir 1 is emptying
   
  System Error 110: cannot solve network hydraulic equations.
  WARNING: Negative pressures at 0:00:00 hrs.
  
     0:00:00: System ill-conditioned at node 9
     0:00:00: Reservoir 1 is emptying
   
  System Error 110: cannot solve network hydraulic equations.
     0:00:00: System ill-conditioned at node 9
     0:00:00: Reservoir 1 is emptying
   
  System Error 110: cannot solve network hydraulic equations.
     0:00:00: System ill-conditioned at node 9
     0:00:00: Reservoir 1 is emptying
   
  System Error 110: cannot solve network hydraulic equations.
     0:00:00: System ill-conditioned at node 9
     0:00:00: Reservoir 1 is emptying
   
  System Error 110: cannot solve network hydraulic equations.
     0:00:00: System ill-conditioned at node 9
     0:00:00: Reservoir 1 is emptying
   
  System Error 110: cannot solve network hydraulic equations.
     0:00:00: System ill-conditioned at node 5
     0:00:00: Reservoir 1 is emptying
   
  System Error 110: cannot solve network hydraulic equations.
  WARNING: Negative pressures at 0:00:00 hrs.
  
     0:00:00: System ill-conditioned at node 9
     0:00:00: Reservoir 1 is emptying
   
  System Error 110: cannot solve network hydraulic equations.
     0:00:00: System ill-conditioned at node 2
     0:00:00: Reservoir 1 is emptying
   
  System Error 110: cannot solve network hydraulic equations.
  WARNING: Negative pressures at 0:00:00 hrs.
  
     0:00:00: System ill-conditioned at node 9
     0:00:00: Reservoir 1 is emptying
   
  System Error 110: cannot solve network hydraulic equations.
     0:00:00: System ill-conditioned at node 9
     0:00:00: Reservoir 1 is emptying
   
  System Error 110: cannot solve network hydraulic equations.
     0:00:00: System ill-conditioned at node 8
     0:00:00: Reservoir 1 is emptying
   
  System Error 110: cannot solve network hydraulic equations.
     0:00:00: System ill-conditioned at node 5
     0:00:00: Reservoir 1 is emptying
   
  System Error 110: cannot solve network hydraulic equations.
     0:00:00: System ill-conditioned at node 4
     0:00:00: Reservoir 1 is emptying
   
  System Error 110: cannot solve network hydraulic equations.
     0:00:00: System ill-conditioned at node 12
     0:00:00: Reservoir 1 is emptying
   
  System Error 110: cannot solve network hydraulic equations.
     0:00:00: System ill-conditioned at node 5
     0:00:00: Reservoir 1 is emptying
   
  System Error 110: cannot solve network hydraulic equations.
     0:00:00: System ill-conditioned at node 9
     0:00:00: Reservoir 1 is emptying
   
  System Error 110: cannot solve network hydraulic equations.
  WARNING: Negative pressures at 0:00:00 hrs.
  
     0:00:00: System ill-conditioned at node 9
     0:00:00: Reservoir 1 is emptying
   
  System Error 110: cannot solve network hydraulic equations.
     0:00:00: System ill-conditioned at node 9
     0:00:00: Reservoir 1 is emptying
   
  System Error 110: cannot solve network hydraulic equations.
     0:00:00: System ill-conditioned at node 9
     0:00:00: Reservoir 1 is emptying
   
  System Error 110: cannot solve network hydraulic equations.
     0:00:00: System ill-conditioned at node 9
     0:00:00: Reservoir 1 is emptying
   
  System Error 110: cannot solve network hydraulic equations.
  WARNING: Negative pressures at 0:00:00 hrs.
  
     0:00:00: System ill-conditioned at node 9
     0:00:00: Reservoir 1 is emptying
   
  System Error 110: cannot solve network hydraulic equations.
  WARNING: Negative pressures at 0:00:00 hrs.
  
     0:00:00: System ill-conditioned at node 9
     0:00:00: Reservoir 1 is emptying
   
  System Error 110: cannot solve network hydraulic equations.
     0:00:00: System ill-conditioned at node 9
     0:00:00: Reservoir 1 is emptying
   
  System Error 110: cannot solve network hydraulic equations.
     0:00:00: System ill-conditioned at node 2
     0:00:00: Reservoir 1 is emptying
   
  System Error 110: cannot solve network hydraulic equations.
  WARNING: Negative pressures at 0:00:00 hrs.
  
     0:00:00: System ill-conditioned at node 2
     0:00:00: Reservoir 1 is emptying
   
  System Error 110: cannot solve network hydraulic equations.
  WARNING: Negative pressures at 0:00:00 hrs.
  
  WARNING: Negative pressures at 0:00:00 hrs.
  
     0:00:00: System ill-conditioned at node 15
     0:00:00: Reservoir 1 is emptying
   
  System Error 110: cannot solve network hydraulic equations.
     0:00:00: System ill-conditioned at node 9
     0:00:00: Reservoir 1 is emptying
   
  System Error 110: cannot solve network hydraulic equations.
  WARNING: Negative pressures at 0:00:00 hrs.
  
     0:00:00: System ill-conditioned at node 9
     0:00:00: Reservoir 1 is emptying
   
  System Error 110: cannot solve network hydraulic equations.
     0:00:00: System ill-conditioned at node 2
     0:00:00: Reservoir 1 is emptying
   
  System Error 110: cannot solve network hydraulic equations.
     0:00:00: System ill-conditioned at node 20
     0:00:00: Reservoir 1 is emptying
   
  System Error 110: cannot solve network hydraulic equations.
     0:00:00: System ill-conditioned at node 2
     0:00:00: Reservoir 1 is emptying
   
  System Error 110: cannot solve network hydraulic equations.
     0:00:00: System ill-conditioned at node 12
     0:00:00: Reservoir 1 is emptying
   
  System Error 110: cannot solve network hydraulic equations.
     0:00:00: System ill-conditioned at node 9
     0:00:00: Reservoir 1 is emptying
   
  System Error 110: cannot solve network hydraulic equations.
     0:00:00: System ill-conditioned at node 9
     0:00:00: Reservoir 1 is emptying
   
  System Error 110: cannot solve network hydraulic equations.
     0:00:00: System ill-conditioned at node 7
     0:00:00: Reservoir 1 is emptying
   
  System Error 110: cannot solve network hydraulic equations.
     0:00:00: System ill-conditioned at node 15
     0:00:00: Reservoir 1 is emptying
   
  System Error 110: cannot solve network hydraulic equations.
     0:00:00: System ill-conditioned at node 9
     0:00:00: Reservoir 1 is emptying
   
  System Error 110: cannot solve network hydraulic equations.
     0:00:00: System ill-conditioned at node 9
     0:00:00: Reservoir 1 is emptying
   
  System Error 110: cannot solve network hydraulic equations.
     0:00:00: System ill-conditioned at node 15
     0:00:00: Reservoir 1 is emptying
   
  System Error 110: cannot solve network hydraulic equations.
  WARNING: Negative pressures at 0:00:00 hrs.
  
     0:00:00: System ill-conditioned at node 15
     0:00:00: Reservoir 1 is emptying
   
  System Error 110: cannot solve network hydraulic equations.
     0:00:00: System ill-conditioned at node 9
     0:00:00: Reservoir 1 is emptying
   
  System Error 110: cannot solve network hydraulic equations.
     0:00:00: System ill-conditioned at node 9
     0:00:00: Reservoir 1 is emptying
   
  System Error 110: cannot solve network hydraulic equations.
     0:00:00: System ill-conditioned at node 9
     0:00:00: Reservoir 1 is emptying
   
  System Error 110: cannot solve network hydraulic equations.
  WARNING: Negative pressures at 0:00:00 hrs.
  
     0:00:00: System ill-conditioned at node 9
     0:00:00: Reservoir 1 is emptying
   
  System Error 110: cannot solve network hydraulic equations.
     0:00:00: System ill-conditioned at node 9
     0:00:00: Reservoir 1 is emptying
   
  System Error 110: cannot solve network hydraulic equations.
     0:00:00: System ill-conditioned at node 9
     0:00:00: Reservoir 1 is emptying
   
  System Error 110: cannot solve network hydraulic equations.
     0:00:00: System ill-conditioned at node 9
     0:00:00: Reservoir 1 is emptying
   
  System Error 110: cannot solve network hydraulic equations.
  WARNING: Negative pressures at 0:00:00 hrs.
  
     0:00:00: System ill-conditioned at node 9
     0:00:00: Reservoir 1 is emptying
   
  System Error 110: cannot solve network hydraulic equations.
     0:00:00: System ill-conditioned at node 18
     0:00:00: Reservoir 1 is emptying
   
  System Error 110: cannot solve network hydraulic equations.
     0:00:00: System ill-conditioned at node 12
     0:00:00: Reservoir 1 is emptying
   
  System Error 110: cannot solve network hydraulic equations.
  WARNING: Negative pressures at 0:00:00 hrs.
  
  WARNING: Negative pressures at 0:00:00 hrs.
  
     0:00:00: System ill-conditioned at node 9
     0:00:00: Reservoir 1 is emptying
   
  System Error 110: cannot solve network hydraulic equations.
  WARNING: Negative pressures at 0:00:00 hrs.
  
  WARNING: Negative pressures at 0:00:00 hrs.
  
     0:00:00: System ill-conditioned at node 18
     0:00:00: Reservoir 1 is emptying
   
  System Error 110: cannot solve network hydraulic equations.
     0:00:00: System ill-conditioned at node 9
     0:00:00: Reservoir 1 is emptying
   
  System Error 110: cannot solve network hydraulic equations.
     0:00:00: System ill-conditioned at node 9
     0:00:00: Reservoir 1 is emptying
   
  System Error 110: cannot solve network hydraulic equations.
  WARNING: Negative pressures at 0:00:00 hrs.
  
  WARNING: Negative pressures at 0:00:00 hrs.
  
     0:00:00: System ill-conditioned at node 2
     0:00:00: Reservoir 1 is emptying
   
  System Error 110: cannot solve network hydraulic equations.
  WARNING: Negative pressures at 0:00:00 hrs.
  
     0:00:00: System ill-conditioned at node 9
     0:00:00: Reservoir 1 is emptying
   
  System Error 110: cannot solve network hydraulic equations.
     0:00:00: System ill-conditioned at node 8
     0:00:00: Reservoir 1 is emptying
   
  System Error 110: cannot solve network hydraulic equations.
     0:00:00: System ill-conditioned at node 9
     0:00:00: Reservoir 1 is emptying
   
  System Error 110: cannot solve network hydraulic equations.
     0:00:00: System ill-conditioned at node 9
     0:00:00: Reservoir 1 is emptying
   
  System Error 110: cannot solve network hydraulic equations.
     0:00:00: System ill-conditioned at node 5
     0:00:00: Reservoir 1 is emptying
   
  System Error 110: cannot solve network hydraulic equations.
     0:00:00: System ill-conditioned at node 7
     0:00:00: Reservoir 1 is emptying
   
  System Error 110: cannot solve network hydraulic equations.
  WARNING: Negative pressures at 0:00:00 hrs.
  
     0:00:00: System ill-conditioned at node 9
     0:00:00: Reservoir 1 is emptying
   
  System Error 110: cannot solve network hydraulic equations.
     0:00:00: System ill-conditioned at node 5
     0:00:00: Reservoir 1 is emptying
   
  System Error 110: cannot solve network hydraulic equations.
  WARNING: Negative pressures at 0:00:00 hrs.
  
     0:00:00: System ill-conditioned at node 9
     0:00:00: Reservoir 1 is emptying
   
  System Error 110: cannot solve network hydraulic equations.
     0:00:00: System ill-conditioned at node 9
     0:00:00: Reservoir 1 is emptying
   
  System Error 110: cannot solve network hydraulic equations.
     0:00:00: System ill-conditioned at node 2
     0:00:00: Reservoir 1 is emptying
   
  System Error 110: cannot solve network hydraulic equations.
  WARNING: Negative pressures at 0:00:00 hrs.
  
     0:00:00: System ill-conditioned at node 9
     0:00:00: Reservoir 1 is emptying
   
  System Error 110: cannot solve network hydraulic equations.
  WARNING: Negative pressures at 0:00:00 hrs.
  
  WARNING: Negative pressures at 0:00:00 hrs.
  
     0:00:00: System ill-conditioned at node 18
     0:00:00: Reservoir 1 is emptying
   
  System Error 110: cannot solve network hydraulic equations.
     0:00:00: System ill-conditioned at node 18
     0:00:00: Reservoir 1 is emptying
   
  System Error 110: cannot solve network hydraulic equations.
     0:00:00: System ill-conditioned at node 15
     0:00:00: Reservoir 1 is emptying
   
  System Error 110: cannot solve network hydraulic equations.
  WARNING: Negative pressures at 0:00:00 hrs.
  
     0:00:00: System ill-conditioned at node 9
     0:00:00: Reservoir 1 is emptying
   
  System Error 110: cannot solve network hydraulic equations.
     0:00:00: System ill-conditioned at node 9
     0:00:00: Reservoir 1 is emptying
   
  System Error 110: cannot solve network hydraulic equations.
  WARNING: Negative pressures at 0:00:00 hrs.
  
     0:00:00: System ill-conditioned at node 9
     0:00:00: Reservoir 1 is emptying
   
  System Error 110: cannot solve network hydraulic equations.
     0:00:00: System ill-conditioned at node 2
     0:00:00: Reservoir 1 is emptying
   
  System Error 110: cannot solve network hydraulic equations.
     0:00:00: System ill-conditioned at node 7
     0:00:00: Reservoir 1 is emptying
   
  System Error 110: cannot solve network hydraulic equations.
     0:00:00: System ill-conditioned at node 9
     0:00:00: Reservoir 1 is emptying
   
  System Error 110: cannot solve network hydraulic equations.
  WARNING: Negative pressures at 0:00:00 hrs.
  
     0:00:00: System ill-conditioned at node 7
     0:00:00: Reservoir 1 is emptying
   
  System Error 110: cannot solve network hydraulic equations.
  WARNING: Negative pressures at 0:00:00 hrs.
  
     0:00:00: System ill-conditioned at node 15
     0:00:00: Reservoir 1 is emptying
   
  System Error 110: cannot solve network hydraulic equations.
     0:00:00: System ill-conditioned at node 5
     0:00:00: Reservoir 1 is emptying
   
  System Error 110: cannot solve network hydraulic equations.
     0:00:00: System ill-conditioned at node 20
     0:00:00: Reservoir 1 is emptying
   
  System Error 110: cannot solve network hydraulic equations.
     0:00:00: System ill-conditioned at node 2
     0:00:00: Reservoir 1 is emptying
   
  System Error 110: cannot solve network hydraulic equations.
     0:00:00: System ill-conditioned at node 10
     0:00:00: Reservoir 1 is emptying
   
  System Error 110: cannot solve network hydraulic equations.
     0:00:00: System ill-conditioned at node 15
     0:00:00: Reservoir 1 is emptying
   
  System Error 110: cannot solve network hydraulic equations.
  WARNING: Negative pressures at 0:00:00 hrs.
  
  WARNING: Negative pressures at 0:00:00 hrs.
  
  WARNING: Negative pressures at 0:00:00 hrs.
  
     0:00:00: System ill-conditioned at node 5
     0:00:00: Reservoir 1 is emptying
   
  System Error 110: cannot solve network hydraulic equations.
  WARNING: Negative pressures at 0:00:00 hrs.
  
     0:00:00: System ill-conditioned at node 8
     0:00:00: Reservoir 1 is emptying
   
  System Error 110: cannot solve network hydraulic equations.
  WARNING: Negative pressures at 0:00:00 hrs.
  
     0:00:00: System ill-conditioned at node 9
     0:00:00: Reservoir 1 is emptying
   
  System Error 110: cannot solve network hydraulic equations.
  WARNING: Negative pressures at 0:00:00 hrs.
  
     0:00:00: System ill-conditioned at node 5
     0:00:00: Reservoir 1 is emptying
   
  System Error 110: cannot solve network hydraulic equations.
  WARNING: Negative pressures at 0:00:00 hrs.
  
  WARNING: Negative pressures at 0:00:00 hrs.
  
     0:00:00: System ill-conditioned at node 9
     0:00:00: Reservoir 1 is emptying
   
  System Error 110: cannot solve network hydraulic equations.
     0:00:00: System ill-conditioned at node 5
     0:00:00: Reservoir 1 is emptying
   
  System Error 110: cannot solve network hydraulic equations.
     0:00:00: System ill-conditioned at node 4
     0:00:00: Reservoir 1 is emptying
   
  System Error 110: cannot solve network hydraulic equations.
     0:00:00: System ill-conditioned at node 9
     0:00:00: Reservoir 1 is emptying
   
  System Error 110: cannot solve network hydraulic equations.
  WARNING: Negative pressures at 0:00:00 hrs.
  
     0:00:00: System ill-conditioned at node 9
     0:00:00: Reservoir 1 is emptying
   
  System Error 110: cannot solve network hydraulic equations.
     0:00:00: System ill-conditioned at node 8
     0:00:00: Reservoir 1 is emptying
   
  System Error 110: cannot solve network hydraulic equations.
     0:00:00: System ill-conditioned at node 15
     0:00:00: Reservoir 1 is emptying
   
  System Error 110: cannot solve network hydraulic equations.
     0:00:00: System ill-conditioned at node 9
     0:00:00: Reservoir 1 is emptying
   
  System Error 110: cannot solve network hydraulic equations.
     0:00:00: System ill-conditioned at node 15
     0:00:00: Reservoir 1 is emptying
   
  System Error 110: cannot solve network hydraulic equations.
     0:00:00: System ill-conditioned at node 5
     0:00:00: Reservoir 1 is emptying
   
  System Error 110: cannot solve network hydraulic equations.
     0:00:00: System ill-conditioned at node 9
     0:00:00: Reservoir 1 is emptying
   
  System Error 110: cannot solve network hydraulic equations.
     0:00:00: System ill-conditioned at node 9
     0:00:00: Reservoir 1 is emptying
   
  System Error 110: cannot solve network hydraulic equations.
  WARNING: Negative pressures at 0:00:00 hrs.
  
  WARNING: Negative pressures at 0:00:00 hrs.
  
     0:00:00: System ill-conditioned at node 5
     0:00:00: Reservoir 1 is emptying
   
  System Error 110: cannot solve network hydraulic equations.
     0:00:00: System ill-conditioned at node 9
     0:00:00: Reservoir 1 is emptying
   
  System Error 110: cannot solve network hydraulic equations.
     0:00:00: System ill-conditioned at node 14
     0:00:00: Reservoir 1 is emptying
   
  System Error 110: cannot solve network hydraulic equations.
     0:00:00: System ill-conditioned at node 9
     0:00:00: Reservoir 1 is emptying
   
  System Error 110: cannot solve network hydraulic equations.
     0:00:00: System ill-conditioned at node 15
     0:00:00: Reservoir 1 is emptying
   
  System Error 110: cannot solve network hydraulic equations.
     0:00:00: System ill-conditioned at node 4
     0:00:00: Reservoir 1 is emptying
   
  System Error 110: cannot solve network hydraulic equations.
     0:00:00: System ill-conditioned at node 9
     0:00:00: Reservoir 1 is emptying
   
  System Error 110: cannot solve network hydraulic equations.
     0:00:00: System ill-conditioned at node 5
     0:00:00: Reservoir 1 is emptying
   
  System Error 110: cannot solve network hydraulic equations.
     0:00:00: System ill-conditioned at node 10
     0:00:00: Reservoir 1 is emptying
   
  System Error 110: cannot solve network hydraulic equations.
     0:00:00: System ill-conditioned at node 9
     0:00:00: Reservoir 1 is emptying
   
  System Error 110: cannot solve network hydraulic equations.
  WARNING: Negative pressures at 0:00:00 hrs.
  
  WARNING: Negative pressures at 0:00:00 hrs.
  
     0:00:00: System ill-conditioned at node 4
     0:00:00: Reservoir 1 is emptying
   
  System Error 110: cannot solve network hydraulic equations.
  WARNING: Negative pressures at 0:00:00 hrs.
  
  WARNING: Negative pressures at 0:00:00 hrs.
  
     0:00:00: System ill-conditioned at node 7
     0:00:00: Reservoir 1 is emptying
   
  System Error 110: cannot solve network hydraulic equations.
  WARNING: Negative pressures at 0:00:00 hrs.
  
  WARNING: Negative pressures at 0:00:00 hrs.
  
  WARNING: Negative pressures at 0:00:00 hrs.
  
  WARNING: Negative pressures at 0:00:00 hrs.
  
  WARNING: Negative pressures at 0:00:00 hrs.
  
     0:00:00: System ill-conditioned at node 9
     0:00:00: Reservoir 1 is emptying
   
  System Error 110: cannot solve network hydraulic equations.
  WARNING: Negative pressures at 0:00:00 hrs.
  
  WARNING: Negative pressures at 0:00:00 hrs.
  
  WARNING: Negative pressures at 0:00:00 hrs.
  
     0:00:00: System ill-conditioned at node 5
     0:00:00: Reservoir 1 is emptying
   
  System Error 110: cannot solve network hydraulic equations.
  WARNING: Negative pressures at 0:00:00 hrs.
  
  WARNING: Negative pressures at 0:00:00 hrs.
  
     0:00:00: System ill-conditioned at node 18
     0:00:00: Reservoir 1 is emptying
   
  System Error 110: cannot solve network hydraulic equations.
     0:00:00: System ill-conditioned at node 10
     0:00:00: Reservoir 1 is emptying
   
  System Error 110: cannot solve network hydraulic equations.
     0:00:00: System ill-conditioned at node 9
     0:00:00: Reservoir 1 is emptying
   
  System Error 110: cannot solve network hydraulic equations.
  WARNING: Negative pressures at 0:00:00 hrs.
  
  WARNING: Negative pressures at 0:00:00 hrs.
  
  WARNING: Negative pressures at 0:00:00 hrs.
  
     0:00:00: System ill-conditioned at node 18
     0:00:00: Reservoir 1 is emptying
   
  System Error 110: cannot solve network hydraulic equations.
     0:00:00: System ill-conditioned at node 10
     0:00:00: Reservoir 1 is emptying
   
  System Error 110: cannot solve network hydraulic equations.
     0:00:00: System ill-conditioned at node 5
     0:00:00: Reservoir 1 is emptying
   
  System Error 110: cannot solve network hydraulic equations.
  WARNING: Negative pressures at 0:00:00 hrs.
  
     0:00:00: System ill-conditioned at node 4
     0:00:00: Reservoir 1 is emptying
   
  System Error 110: cannot solve network hydraulic equations.
     0:00:00: System ill-conditioned at node 2
     0:00:00: Reservoir 1 is emptying
   
  System Error 110: cannot solve network hydraulic equations.
  WARNING: Negative pressures at 0:00:00 hrs.
  
  WARNING: Negative pressures at 0:00:00 hrs.
  
     0:00:00: System ill-conditioned at node 9
     0:00:00: Reservoir 1 is emptying
   
  System Error 110: cannot solve network hydraulic equations.
  WARNING: Negative pressures at 0:00:00 hrs.
  
  WARNING: Negative pressures at 0:00:00 hrs.
  
  WARNING: Negative pressures at 0:00:00 hrs.
  
     0:00:00: System ill-conditioned at node 15
     0:00:00: Reservoir 1 is emptying
   
  System Error 110: cannot solve network hydraulic equations.
  WARNING: Negative pressures at 0:00:00 hrs.
  
  WARNING: Negative pressures at 0:00:00 hrs.
  
     0:00:00: System ill-conditioned at node 15
     0:00:00: Reservoir 1 is emptying
   
  System Error 110: cannot solve network hydraulic equations.
     0:00:00: System ill-conditioned at node 9
     0:00:00: Reservoir 1 is emptying
   
  System Error 110: cannot solve network hydraulic equations.
     0:00:00: System ill-conditioned at node 9
     0:00:00: Reservoir 1 is emptying
   
  System Error 110: cannot solve network hydraulic equations.
  WARNING: Negative pressures at 0:00:00 hrs.
  
  WARNING: Negative pressures at 0:00:00 hrs.
  
     0:00:00: System ill-conditioned at node 9
     0:00:00: Reservoir 1 is emptying
   
  System Error 110: cannot solve network hydraulic equations.
     0:00:00: System ill-conditioned at node 9
     0:00:00: Reservoir 1 is emptying
   
  System Error 110: cannot solve network hydraulic equations.
     0:00:00: System ill-conditioned at node 8
     0:00:00: Reservoir 1 is emptying
   
  System Error 110: cannot solve network hydraulic equations.
  WARNING: Negative pressures at 0:00:00 hrs.
  
  WARNING: Negative pressures at 0:00:00 hrs.
  
     0:00:00: System ill-conditioned at node 9
     0:00:00: Reservoir 1 is emptying
   
  System Error 110: cannot solve network hydraulic equations.
     0:00:00: System ill-conditioned at node 9
     0:00:00: Reservoir 1 is emptying
   
  System Error 110: cannot solve network hydraulic equations.
     0:00:00: System ill-conditioned at node 5
     0:00:00: Reservoir 1 is emptying
   
  System Error 110: cannot solve network hydraulic equations.
     0:00:00: System ill-conditioned at node 9
     0:00:00: Reservoir 1 is emptying
   
  System Error 110: cannot solve network hydraulic equations.
     0:00:00: System ill-conditioned at node 9
     0:00:00: Reservoir 1 is emptying
   
  System Error 110: cannot solve network hydraulic equations.
  WARNING: Negative pressures at 0:00:00 hrs.
  
  WARNING: Negative pressures at 0:00:00 hrs.
  
     0:00:00: System ill-conditioned at node 5
     0:00:00: Reservoir 1 is emptying
   
  System Error 110: cannot solve network hydraulic equations.
  WARNING: Negative pressures at 0:00:00 hrs.
  
  WARNING: Negative pressures at 0:00:00 hrs.
  
     0:00:00: System ill-conditioned at node 9
     0:00:00: Reservoir 1 is emptying
   
  System Error 110: cannot solve network hydraulic equations.
     0:00:00: System ill-conditioned at node 15
     0:00:00: Reservoir 1 is emptying
   
  System Error 110: cannot solve network hydraulic equations.
     0:00:00: System ill-conditioned at node 4
     0:00:00: Reservoir 1 is emptying
   
  System Error 110: cannot solve network hydraulic equations.
  WARNING: Negative pressures at 0:00:00 hrs.
  
  WARNING: Negative pressures at 0:00:00 hrs.
  
     0:00:00: System ill-conditioned at node 9
     0:00:00: Reservoir 1 is emptying
   
  System Error 110: cannot solve network hydraulic equations.
  WARNING: Negative pressures at 0:00:00 hrs.
  
     0:00:00: System ill-conditioned at node 9
     0:00:00: Reservoir 1 is emptying
   
  System Error 110: cannot solve network hydraulic equations.
  WARNING: Negative pressures at 0:00:00 hrs.
  
  WARNING: Negative pressures at 0:00:00 hrs.
  
  WARNING: Negative pressures at 0:00:00 hrs.
  
     0:00:00: System ill-conditioned at node 5
     0:00:00: Reservoir 1 is emptying
   
  System Error 110: cannot solve network hydraulic equations.
     0:00:00: System ill-conditioned at node 10
     0:00:00: Reservoir 1 is emptying
   
  System Error 110: cannot solve network hydraulic equations.
  WARNING: Negative pressures at 0:00:00 hrs.
  
     0:00:00: System ill-conditioned at node 4
     0:00:00: Reservoir 1 is emptying
   
  System Error 110: cannot solve network hydraulic equations.
     0:00:00: System ill-conditioned at node 18
     0:00:00: Reservoir 1 is emptying
   
  System Error 110: cannot solve network hydraulic equations.
  WARNING: Negative pressures at 0:00:00 hrs.
  
  WARNING: Negative pressures at 0:00:00 hrs.
  
     0:00:00: System ill-conditioned at node 9
     0:00:00: Reservoir 1 is emptying
   
  System Error 110: cannot solve network hydraulic equations.
  WARNING: Negative pressures at 0:00:00 hrs.
  
     0:00:00: System ill-conditioned at node 9
     0:00:00: Reservoir 1 is emptying
   
  System Error 110: cannot solve network hydraulic equations.
  WARNING: Negative pressures at 0:00:00 hrs.
  
  WARNING: Negative pressures at 0:00:00 hrs.
  
     0:00:00: System ill-conditioned at node 9
     0:00:00: Reservoir 1 is emptying
   
  System Error 110: cannot solve network hydraulic equations.
     0:00:00: System ill-conditioned at node 15
     0:00:00: Reservoir 1 is emptying
   
  System Error 110: cannot solve network hydraulic equations.
     0:00:00: System ill-conditioned at node 5
     0:00:00: Reservoir 1 is emptying
   
  System Error 110: cannot solve network hydraulic equations.
  WARNING: Negative pressures at 0:00:00 hrs.
  
  WARNING: Negative pressures at 0:00:00 hrs.
  
  WARNING: Negative pressures at 0:00:00 hrs.
  
  WARNING: Negative pressures at 0:00:00 hrs.
  
  WARNING: Negative pressures at 0:00:00 hrs.
  
  WARNING: Negative pressures at 0:00:00 hrs.
  
     0:00:00: System ill-conditioned at node 15
     0:00:00: Reservoir 1 is emptying
   
  System Error 110: cannot solve network hydraulic equations.
  WARNING: Negative pressures at 0:00:00 hrs.
  
     0:00:00: System ill-conditioned at node 9
     0:00:00: Reservoir 1 is emptying
   
  System Error 110: cannot solve network hydraulic equations.
     0:00:00: System ill-conditioned at node 9
     0:00:00: Reservoir 1 is emptying
   
  System Error 110: cannot solve network hydraulic equations.
     0:00:00: System ill-conditioned at node 9
     0:00:00: Reservoir 1 is emptying
   
  System Error 110: cannot solve network hydraulic equations.
     0:00:00: System ill-conditioned at node 9
     0:00:00: Reservoir 1 is emptying
   
  System Error 110: cannot solve network hydraulic equations.
     0:00:00: System ill-conditioned at node 5
     0:00:00: Reservoir 1 is emptying
   
  System Error 110: cannot solve network hydraulic equations.
     0:00:00: System ill-conditioned at node 9
     0:00:00: Reservoir 1 is emptying
   
  System Error 110: cannot solve network hydraulic equations.
     0:00:00: System ill-conditioned at node 5
     0:00:00: Reservoir 1 is emptying
   
  System Error 110: cannot solve network hydraulic equations.
  WARNING: Negative pressures at 0:00:00 hrs.
  
     0:00:00: System ill-conditioned at node 5
     0:00:00: Reservoir 1 is emptying
   
  System Error 110: cannot solve network hydraulic equations.
  WARNING: Negative pressures at 0:00:00 hrs.
  
     0:00:00: System ill-conditioned at node 4
     0:00:00: Reservoir 1 is emptying
   
  System Error 110: cannot solve network hydraulic equations.
  WARNING: Negative pressures at 0:00:00 hrs.
  
  WARNING: Negative pressures at 0:00:00 hrs.
  
     0:00:00: System ill-conditioned at node 8
     0:00:00: Reservoir 1 is emptying
   
  System Error 110: cannot solve network hydraulic equations.
  WARNING: Negative pressures at 0:00:00 hrs.
  
  WARNING: Negative pressures at 0:00:00 hrs.
  
     0:00:00: System ill-conditioned at node 5
     0:00:00: Reservoir 1 is emptying
   
  System Error 110: cannot solve network hydraulic equations.
     0:00:00: System ill-conditioned at node 4
     0:00:00: Reservoir 1 is emptying
   
  System Error 110: cannot solve network hydraulic equations.
  WARNING: Negative pressures at 0:00:00 hrs.
  
  WARNING: Negative pressures at 0:00:00 hrs.
  
  WARNING: Negative pressures at 0:00:00 hrs.
  
  WARNING: Negative pressures at 0:00:00 hrs.
  
  WARNING: Negative pressures at 0:00:00 hrs.
  
  WARNING: Negative pressures at 0:00:00 hrs.
  
     0:00:00: System ill-conditioned at node 9
     0:00:00: Reservoir 1 is emptying
   
  System Error 110: cannot solve network hydraulic equations.
  WARNING: Negative pressures at 0:00:00 hrs.
  
     0:00:00: System ill-conditioned at node 10
     0:00:00: Reservoir 1 is emptying
   
  System Error 110: cannot solve network hydraulic equations.
     0:00:00: System ill-conditioned at node 10
     0:00:00: Reservoir 1 is emptying
   
  System Error 110: cannot solve network hydraulic equations.
  WARNING: Negative pressures at 0:00:00 hrs.
  
  WARNING: Negative pressures at 0:00:00 hrs.
  
  WARNING: Negative pressures at 0:00:00 hrs.
  
     0:00:00: System ill-conditioned at node 9
     0:00:00: Reservoir 1 is emptying
   
  System Error 110: cannot solve network hydraulic equations.
  WARNING: Negative pressures at 0:00:00 hrs.
  
  WARNING: Negative pressures at 0:00:00 hrs.
  
  WARNING: Negative pressures at 0:00:00 hrs.
  
  WARNING: Negative pressures at 0:00:00 hrs.
  
     0:00:00: System ill-conditioned at node 4
     0:00:00: Reservoir 1 is emptying
   
  System Error 110: cannot solve network hydraulic equations.
  WARNING: Negative pressures at 0:00:00 hrs.
  
  WARNING: Negative pressures at 0:00:00 hrs.
  
  WARNING: Negative pressures at 0:00:00 hrs.
  
     0:00:00: System ill-conditioned at node 15
     0:00:00: Reservoir 1 is emptying
   
  System Error 110: cannot solve network hydraulic equations.
     0:00:00: System ill-conditioned at node 10
     0:00:00: Reservoir 1 is emptying
   
  System Error 110: cannot solve network hydraulic equations.
  WARNING: Negative pressures at 0:00:00 hrs.
  
     0:00:00: System ill-conditioned at node 10
     0:00:00: Reservoir 1 is emptying
   
  System Error 110: cannot solve network hydraulic equations.
  WARNING: Negative pressures at 0:00:00 hrs.
  
     0:00:00: System ill-conditioned at node 9
     0:00:00: Reservoir 1 is emptying
   
  System Error 110: cannot solve network hydraulic equations.
  WARNING: Negative pressures at 0:00:00 hrs.
  
     0:00:00: System ill-conditioned at node 4
     0:00:00: Reservoir 1 is emptying
   
  System Error 110: cannot solve network hydraulic equations.
     0:00:00: System ill-conditioned at node 9
     0:00:00: Reservoir 1 is emptying
   
  System Error 110: cannot solve network hydraulic equations.
     0:00:00: System ill-conditioned at node 5
     0:00:00: Reservoir 1 is emptying
   
  System Error 110: cannot solve network hydraulic equations.
  WARNING: Negative pressures at 0:00:00 hrs.
  
     0:00:00: System ill-conditioned at node 5
     0:00:00: Reservoir 1 is emptying
   
  System Error 110: cannot solve network hydraulic equations.
  WARNING: Negative pressures at 0:00:00 hrs.
  
  WARNING: Negative pressures at 0:00:00 hrs.
  
  WARNING: Negative pressures at 0:00:00 hrs.
  
     0:00:00: System ill-conditioned at node 5
     0:00:00: Reservoir 1 is emptying
   
  System Error 110: cannot solve network hydraulic equations.
     0:00:00: System ill-conditioned at node 18
     0:00:00: Reservoir 1 is emptying
   
  System Error 110: cannot solve network hydraulic equations.
     0:00:00: System ill-conditioned at node 9
     0:00:00: Reservoir 1 is emptying
   
  System Error 110: cannot solve network hydraulic equations.
  WARNING: Negative pressures at 0:00:00 hrs.
  
  WARNING: Negative pressures at 0:00:00 hrs.
  
  WARNING: Negative pressures at 0:00:00 hrs.
  
  WARNING: Negative pressures at 0:00:00 hrs.
  
     0:00:00: System ill-conditioned at node 18
     0:00:00: Reservoir 1 is emptying
   
  System Error 110: cannot solve network hydraulic equations.
  WARNING: Negative pressures at 0:00:00 hrs.
  
  WARNING: Negative pressures at 0:00:00 hrs.
  
     0:00:00: System ill-conditioned at node 5
     0:00:00: Reservoir 1 is emptying
   
  System Error 110: cannot solve network hydraulic equations.
  WARNING: Negative pressures at 0:00:00 hrs.
  
     0:00:00: System ill-conditioned at node 10
     0:00:00: Reservoir 1 is emptying
   
  System Error 110: cannot solve network hydraulic equations.
     0:00:00: System ill-conditioned at node 9
     0:00:00: Reservoir 1 is emptying
   
  System Error 110: cannot solve network hydraulic equations.
     0:00:00: System ill-conditioned at node 5
     0:00:00: Reservoir 1 is emptying
   
  System Error 110: cannot solve network hydraulic equations.
     0:00:00: System ill-conditioned at node 9
     0:00:00: Reservoir 1 is emptying
   
  System Error 110: cannot solve network hydraulic equations.
     0:00:00: System ill-conditioned at node 2
     0:00:00: Reservoir 1 is emptying
   
  System Error 110: cannot solve network hydraulic equations.
  WARNING: Negative pressures at 0:00:00 hrs.
  
     0:00:00: System ill-conditioned at node 9
     0:00:00: Reservoir 1 is emptying
   
  System Error 110: cannot solve network hydraulic equations.
     0:00:00: System ill-conditioned at node 4
     0:00:00: Reservoir 1 is emptying
   
  System Error 110: cannot solve network hydraulic equations.
     0:00:00: System ill-conditioned at node 5
     0:00:00: Reservoir 1 is emptying
   
  System Error 110: cannot solve network hydraulic equations.
     0:00:00: System ill-conditioned at node 18
     0:00:00: Reservoir 1 is emptying
   
  System Error 110: cannot solve network hydraulic equations.
  WARNING: Negative pressures at 0:00:00 hrs.
  
     0:00:00: System ill-conditioned at node 2
     0:00:00: Reservoir 1 is emptying
   
  System Error 110: cannot solve network hydraulic equations.
     0:00:00: System ill-conditioned at node 9
     0:00:00: Reservoir 1 is emptying
   
  System Error 110: cannot solve network hydraulic equations.
  WARNING: Negative pressures at 0:00:00 hrs.
  
  WARNING: Negative pressures at 0:00:00 hrs.
  
  WARNING: Negative pressures at 0:00:00 hrs.
  
  WARNING: Negative pressures at 0:00:00 hrs.
  
     0:00:00: System ill-conditioned at node 10
     0:00:00: Reservoir 1 is emptying
   
  System Error 110: cannot solve network hydraulic equations.
  WARNING: Negative pressures at 0:00:00 hrs.
  
  WARNING: Negative pressures at 0:00:00 hrs.
  
  WARNING: Negative pressures at 0:00:00 hrs.
  
     0:00:00: System ill-conditioned at node 9
     0:00:00: Reservoir 1 is emptying
   
  System Error 110: cannot solve network hydraulic equations.
  WARNING: Negative pressures at 0:00:00 hrs.
  
  WARNING: Negative pressures at 0:00:00 hrs.
  
  WARNING: Negative pressures at 0:00:00 hrs.
  
  WARNING: Negative pressures at 0:00:00 hrs.
  
     0:00:00: System ill-conditioned at node 10
     0:00:00: Reservoir 1 is emptying
   
  System Error 110: cannot solve network hydraulic equations.
     0:00:00: System ill-conditioned at node 5
     0:00:00: Reservoir 1 is emptying
   
  System Error 110: cannot solve network hydraulic equations.
     0:00:00: System ill-conditioned at node 2
     0:00:00: Reservoir 1 is emptying
   
  System Error 110: cannot solve network hydraulic equations.
     0:00:00: System ill-conditioned at node 5
     0:00:00: Reservoir 1 is emptying
   
  System Error 110: cannot solve network hydraulic equations.
  WARNING: Negative pressures at 0:00:00 hrs.
  
  WARNING: Negative pressures at 0:00:00 hrs.
  
  WARNING: Negative pressures at 0:00:00 hrs.
  
     0:00:00: System ill-conditioned at node 5
     0:00:00: Reservoir 1 is emptying
   
  System Error 110: cannot solve network hydraulic equations.
  WARNING: Negative pressures at 0:00:00 hrs.
  
  WARNING: Negative pressures at 0:00:00 hrs.
  
     0:00:00: System ill-conditioned at node 9
     0:00:00: Reservoir 1 is emptying
   
  System Error 110: cannot solve network hydraulic equations.
     0:00:00: System ill-conditioned at node 18
     0:00:00: Reservoir 1 is emptying
   
  System Error 110: cannot solve network hydraulic equations.
  WARNING: Negative pressures at 0:00:00 hrs.
  
  WARNING: Negative pressures at 0:00:00 hrs.
  
  WARNING: Negative pressures at 0:00:00 hrs.
  
  WARNING: Negative pressures at 0:00:00 hrs.
  
     0:00:00: System ill-conditioned at node 10
     0:00:00: Reservoir 1 is emptying
   
  System Error 110: cannot solve network hydraulic equations.
     0:00:00: System ill-conditioned at node 18
     0:00:00: Reservoir 1 is emptying
   
  System Error 110: cannot solve network hydraulic equations.
  WARNING: Negative pressures at 0:00:00 hrs.
  
  WARNING: Negative pressures at 0:00:00 hrs.
  
     0:00:00: System ill-conditioned at node 15
     0:00:00: Reservoir 1 is emptying
   
  System Error 110: cannot solve network hydraulic equations.
  WARNING: Negative pressures at 0:00:00 hrs.
  
  WARNING: Negative pressures at 0:00:00 hrs.
  
     0:00:00: System ill-conditioned at node 4
     0:00:00: Reservoir 1 is emptying
   
  System Error 110: cannot solve network hydraulic equations.
     0:00:00: System ill-conditioned at node 10
     0:00:00: Reservoir 1 is emptying
   
  System Error 110: cannot solve network hydraulic equations.
  WARNING: Negative pressures at 0:00:00 hrs.
  
     0:00:00: System ill-conditioned at node 9
     0:00:00: Reservoir 1 is emptying
   
  System Error 110: cannot solve network hydraulic equations.
  WARNING: Negative pressures at 0:00:00 hrs.
  
  WARNING: Negative pressures at 0:00:00 hrs.
  
  WARNING: Negative pressures at 0:00:00 hrs.
  
  WARNING: Negative pressures at 0:00:00 hrs.
  
  WARNING: Negative pressures at 0:00:00 hrs.
  
  WARNING: Negative pressures at 0:00:00 hrs.
  
     0:00:00: System ill-conditioned at node 10
     0:00:00: Reservoir 1 is emptying
   
  System Error 110: cannot solve network hydraulic equations.
     0:00:00: System ill-conditioned at node 7
     0:00:00: Reservoir 1 is emptying
   
  System Error 110: cannot solve network hydraulic equations.
  WARNING: Negative pressures at 0:00:00 hrs.
  
  WARNING: Negative pressures at 0:00:00 hrs.
  
  WARNING: Negative pressures at 0:00:00 hrs.
  
     0:00:00: System ill-conditioned at node 18
     0:00:00: Reservoir 1 is emptying
   
  System Error 110: cannot solve network hydraulic equations.
  WARNING: Negative pressures at 0:00:00 hrs.
  
  WARNING: Negative pressures at 0:00:00 hrs.
  
  WARNING: Negative pressures at 0:00:00 hrs.
  
  WARNING: Negative pressures at 0:00:00 hrs.
  
     0:00:00: System ill-conditioned at node 2
     0:00:00: Reservoir 1 is emptying
   
  System Error 110: cannot solve network hydraulic equations.
  WARNING: Negative pressures at 0:00:00 hrs.
  
  WARNING: Negative pressures at 0:00:00 hrs.
  
     0:00:00: System ill-conditioned at node 18
     0:00:00: Reservoir 1 is emptying
   
  System Error 110: cannot solve network hydraulic equations.
  WARNING: Negative pressures at 0:00:00 hrs.
  
     0:00:00: System ill-conditioned at node 9
     0:00:00: Reservoir 1 is emptying
   
  System Error 110: cannot solve network hydraulic equations.
  WARNING: Negative pressures at 0:00:00 hrs.
  
     0:00:00: System ill-conditioned at node 9
     0:00:00: Reservoir 1 is emptying
   
  System Error 110: cannot solve network hydraulic equations.
  WARNING: Negative pressures at 0:00:00 hrs.
  
  WARNING: Negative pressures at 0:00:00 hrs.
  
     0:00:00: System ill-conditioned at node 2
     0:00:00: Reservoir 1 is emptying
   
  System Error 110: cannot solve network hydraulic equations.
  WARNING: Negative pressures at 0:00:00 hrs.
  
  WARNING: Negative pressures at 0:00:00 hrs.
  
  WARNING: Negative pressures at 0:00:00 hrs.
  
  WARNING: Negative pressures at 0:00:00 hrs.
  
  WARNING: Negative pressures at 0:00:00 hrs.
  
  WARNING: Negative pressures at 0:00:00 hrs.
  
     0:00:00: System ill-conditioned at node 15
     0:00:00: Reservoir 1 is emptying
   
  System Error 110: cannot solve network hydraulic equations.
  WARNING: Negative pressures at 0:00:00 hrs.
  
     0:00:00: System ill-conditioned at node 10
     0:00:00: Reservoir 1 is emptying
   
  System Error 110: cannot solve network hydraulic equations.
     0:00:00: System ill-conditioned at node 2
     0:00:00: Reservoir 1 is emptying
   
  System Error 110: cannot solve network hydraulic equations.
     0:00:00: System ill-conditioned at node 9
     0:00:00: Reservoir 1 is emptying
   
  System Error 110: cannot solve network hydraulic equations.
  WARNING: Negative pressures at 0:00:00 hrs.
  
  WARNING: Negative pressures at 0:00:00 hrs.
  
  WARNING: Negative pressures at 0:00:00 hrs.
  
  WARNING: Negative pressures at 0:00:00 hrs.
  
     0:00:00: System ill-conditioned at node 4
     0:00:00: Reservoir 1 is emptying
   
  System Error 110: cannot solve network hydraulic equations.
  WARNING: Negative pressures at 0:00:00 hrs.
  
     0:00:00: System ill-conditioned at node 4
     0:00:00: Reservoir 1 is emptying
   
  System Error 110: cannot solve network hydraulic equations.
  WARNING: Negative pressures at 0:00:00 hrs.
  
     0:00:00: System ill-conditioned at node 18
     0:00:00: Reservoir 1 is emptying
   
  System Error 110: cannot solve network hydraulic equations.
  WARNING: Negative pressures at 0:00:00 hrs.
  
     0:00:00: System ill-conditioned at node 9
     0:00:00: Reservoir 1 is emptying
   
  System Error 110: cannot solve network hydraulic equations.
  WARNING: Negative pressures at 0:00:00 hrs.
  
  WARNING: Negative pressures at 0:00:00 hrs.
  
  WARNING: Negative pressures at 0:00:00 hrs.
  
     0:00:00: System ill-conditioned at node 12
     0:00:00: Reservoir 1 is emptying
   
  System Error 110: cannot solve network hydraulic equations.
  WARNING: Negative pressures at 0:00:00 hrs.
  
     0:00:00: System ill-conditioned at node 9
     0:00:00: Reservoir 1 is emptying
   
  System Error 110: cannot solve network hydraulic equations.
     0:00:00: System ill-conditioned at node 10
     0:00:00: Reservoir 1 is emptying
   
  System Error 110: cannot solve network hydraulic equations.
  WARNING: Negative pressures at 0:00:00 hrs.
  
     0:00:00: System ill-conditioned at node 4
     0:00:00: Reservoir 1 is emptying
   
  System Error 110: cannot solve network hydraulic equations.
     0:00:00: System ill-conditioned at node 9
     0:00:00: Reservoir 1 is emptying
   
  System Error 110: cannot solve network hydraulic equations.
     0:00:00: System ill-conditioned at node 7
     0:00:00: Reservoir 1 is emptying
   
  System Error 110: cannot solve network hydraulic equations.
  WARNING: Negative pressures at 0:00:00 hrs.
  
     0:00:00: System ill-conditioned at node 2
     0:00:00: Reservoir 1 is emptying
   
  System Error 110: cannot solve network hydraulic equations.
     0:00:00: System ill-conditioned at node 14
     0:00:00: Reservoir 1 is emptying
   
  System Error 110: cannot solve network hydraulic equations.
  WARNING: Negative pressures at 0:00:00 hrs.
  
     0:00:00: System ill-conditioned at node 4
     0:00:00: Reservoir 1 is emptying
   
  System Error 110: cannot solve network hydraulic equations.
     0:00:00: System ill-conditioned at node 9
     0:00:00: Reservoir 1 is emptying
   
  System Error 110: cannot solve network hydraulic equations.
  WARNING: Negative pressures at 0:00:00 hrs.
  
  WARNING: Negative pressures at 0:00:00 hrs.
  
  WARNING: Negative pressures at 0:00:00 hrs.
  
     0:00:00: System ill-conditioned at node 2
     0:00:00: Reservoir 1 is emptying
   
  System Error 110: cannot solve network hydraulic equations.
  WARNING: Negative pressures at 0:00:00 hrs.
  
  WARNING: Negative pressures at 0:00:00 hrs.
  
  WARNING: Negative pressures at 0:00:00 hrs.
  
  WARNING: Negative pressures at 0:00:00 hrs.
  
  WARNING: Negative pressures at 0:00:00 hrs.
  
  WARNING: Negative pressures at 0:00:00 hrs.
  
     0:00:00: System ill-conditioned at node 2
     0:00:00: Reservoir 1 is emptying
   
  System Error 110: cannot solve network hydraulic equations.
     0:00:00: System ill-conditioned at node 9
     0:00:00: Reservoir 1 is emptying
   
  System Error 110: cannot solve network hydraulic equations.
  WARNING: Negative pressures at 0:00:00 hrs.
  
     0:00:00: System ill-conditioned at node 9
     0:00:00: Reservoir 1 is emptying
   
  System Error 110: cannot solve network hydraulic equations.
  WARNING: Negative pressures at 0:00:00 hrs.
  
     0:00:00: System ill-conditioned at node 18
     0:00:00: Reservoir 1 is emptying
   
  System Error 110: cannot solve network hydraulic equations.
  WARNING: Negative pressures at 0:00:00 hrs.
  
     0:00:00: System ill-conditioned at node 5
     0:00:00: Reservoir 1 is emptying
   
  System Error 110: cannot solve network hydraulic equations.
     0:00:00: System ill-conditioned at node 8
     0:00:00: Reservoir 1 is emptying
   
  System Error 110: cannot solve network hydraulic equations.
  WARNING: Negative pressures at 0:00:00 hrs.
  
  WARNING: Negative pressures at 0:00:00 hrs.
  
     0:00:00: System ill-conditioned at node 8
     0:00:00: Reservoir 1 is emptying
   
  System Error 110: cannot solve network hydraulic equations.
  WARNING: Negative pressures at 0:00:00 hrs.
  
  WARNING: Negative pressures at 0:00:00 hrs.
  
     0:00:00: System ill-conditioned at node 20
     0:00:00: Reservoir 1 is emptying
   
  System Error 110: cannot solve network hydraulic equations.
     0:00:00: System ill-conditioned at node 18
     0:00:00: Reservoir 1 is emptying
   
  System Error 110: cannot solve network hydraulic equations.
     0:00:00: System ill-conditioned at node 8
     0:00:00: Reservoir 1 is emptying
   
  System Error 110: cannot solve network hydraulic equations.
  WARNING: Negative pressures at 0:00:00 hrs.
  
  WARNING: Negative pressures at 0:00:00 hrs.
  
  WARNING: Negative pressures at 0:00:00 hrs.
  
  WARNING: Negative pressures at 0:00:00 hrs.
  
     0:00:00: System ill-conditioned at node 9
     0:00:00: Reservoir 1 is emptying
   
  System Error 110: cannot solve network hydraulic equations.
  WARNING: Negative pressures at 0:00:00 hrs.
  
     0:00:00: System ill-conditioned at node 18
     0:00:00: Reservoir 1 is emptying
   
  System Error 110: cannot solve network hydraulic equations.
  WARNING: Negative pressures at 0:00:00 hrs.
  
     0:00:00: System ill-conditioned at node 10
     0:00:00: Reservoir 1 is emptying
   
  System Error 110: cannot solve network hydraulic equations.
  WARNING: Negative pressures at 0:00:00 hrs.
  
  WARNING: Negative pressures at 0:00:00 hrs.
  
     0:00:00: System ill-conditioned at node 4
     0:00:00: Reservoir 1 is emptying
   
  System Error 110: cannot solve network hydraulic equations.
     0:00:00: System ill-conditioned at node 10
     0:00:00: Reservoir 1 is emptying
   
  System Error 110: cannot solve network hydraulic equations.
  WARNING: Negative pressures at 0:00:00 hrs.
  
  WARNING: Negative pressures at 0:00:00 hrs.
  
     0:00:00: System ill-conditioned at node 15
     0:00:00: Reservoir 1 is emptying
   
  System Error 110: cannot solve network hydraulic equations.
     0:00:00: System ill-conditioned at node 9
     0:00:00: Reservoir 1 is emptying
   
  System Error 110: cannot solve network hydraulic equations.
     0:00:00: System ill-conditioned at node 5
     0:00:00: Reservoir 1 is emptying
   
  System Error 110: cannot solve network hydraulic equations.
     0:00:00: System ill-conditioned at node 9
     0:00:00: Reservoir 1 is emptying
   
  System Error 110: cannot solve network hydraulic equations.
     0:00:00: System ill-conditioned at node 13
     0:00:00: Reservoir 1 is emptying
   
  System Error 110: cannot solve network hydraulic equations.
  WARNING: Negative pressures at 0:00:00 hrs.
  
  WARNING: Negative pressures at 0:00:00 hrs.
  
  WARNING: Negative pressures at 0:00:00 hrs.
  
     0:00:00: System ill-conditioned at node 2
     0:00:00: Reservoir 1 is emptying
   
  System Error 110: cannot solve network hydraulic equations.
     0:00:00: System ill-conditioned at node 4
     0:00:00: Reservoir 1 is emptying
   
  System Error 110: cannot solve network hydraulic equations.
     0:00:00: System ill-conditioned at node 18
     0:00:00: Reservoir 1 is emptying
   
  System Error 110: cannot solve network hydraulic equations.
     0:00:00: System ill-conditioned at node 4
     0:00:00: Reservoir 1 is emptying
   
  System Error 110: cannot solve network hydraulic equations.
  WARNING: Negative pressures at 0:00:00 hrs.
  
     0:00:00: System ill-conditioned at node 9
     0:00:00: Reservoir 1 is emptying
   
  System Error 110: cannot solve network hydraulic equations.
  WARNING: Negative pressures at 0:00:00 hrs.
  
     0:00:00: System ill-conditioned at node 4
     0:00:00: Reservoir 1 is emptying
   
  System Error 110: cannot solve network hydraulic equations.
  WARNING: Negative pressures at 0:00:00 hrs.
  
     0:00:00: System ill-conditioned at node 4
     0:00:00: Reservoir 1 is emptying
   
  System Error 110: cannot solve network hydraulic equations.
  WARNING: Negative pressures at 0:00:00 hrs.
  
     0:00:00: System ill-conditioned at node 18
     0:00:00: Reservoir 1 is emptying
   
  System Error 110: cannot solve network hydraulic equations.
  WARNING: Negative pressures at 0:00:00 hrs.
  
     0:00:00: System ill-conditioned at node 9
     0:00:00: Reservoir 1 is emptying
   
  System Error 110: cannot solve network hydraulic equations.
  WARNING: Negative pressures at 0:00:00 hrs.
  
     0:00:00: System ill-conditioned at node 5
     0:00:00: Reservoir 1 is emptying
   
  System Error 110: cannot solve network hydraulic equations.
  WARNING: Negative pressures at 0:00:00 hrs.
  
  WARNING: Negative pressures at 0:00:00 hrs.
  
     0:00:00: System ill-conditioned at node 9
     0:00:00: Reservoir 1 is emptying
   
  System Error 110: cannot solve network hydraulic equations.
  WARNING: Negative pressures at 0:00:00 hrs.
  
     0:00:00: System ill-conditioned at node 18
     0:00:00: Reservoir 1 is emptying
   
  System Error 110: cannot solve network hydraulic equations.
     0:00:00: System ill-conditioned at node 9
     0:00:00: Reservoir 1 is emptying
   
  System Error 110: cannot solve network hydraulic equations.
     0:00:00: System ill-conditioned at node 18
     0:00:00: Reservoir 1 is emptying
   
  System Error 110: cannot solve network hydraulic equations.
     0:00:00: System ill-conditioned at node 9
     0:00:00: Reservoir 1 is emptying
   
  System Error 110: cannot solve network hydraulic equations.
  WARNING: Negative pressures at 0:00:00 hrs.
  
  WARNING: Negative pressures at 0:00:00 hrs.
  
  WARNING: Negative pressures at 0:00:00 hrs.
  
  WARNING: Negative pressures at 0:00:00 hrs.
  
     0:00:00: System ill-conditioned at node 7
     0:00:00: Reservoir 1 is emptying
   
  System Error 110: cannot solve network hydraulic equations.
  WARNING: Negative pressures at 0:00:00 hrs.
  
     0:00:00: System ill-conditioned at node 18
     0:00:00: Reservoir 1 is emptying
   
  System Error 110: cannot solve network hydraulic equations.
  WARNING: Negative pressures at 0:00:00 hrs.
  
     0:00:00: System ill-conditioned at node 9
     0:00:00: Reservoir 1 is emptying
   
  System Error 110: cannot solve network hydraulic equations.
  WARNING: Negative pressures at 0:00:00 hrs.
  
  WARNING: Negative pressures at 0:00:00 hrs.
  
  WARNING: Negative pressures at 0:00:00 hrs.
  
  WARNING: Negative pressures at 0:00:00 hrs.
  
  WARNING: Negative pressures at 0:00:00 hrs.
  
     0:00:00: System ill-conditioned at node 5
     0:00:00: Reservoir 1 is emptying
   
  System Error 110: cannot solve network hydraulic equations.
  WARNING: Negative pressures at 0:00:00 hrs.
  
  WARNING: Negative pressures at 0:00:00 hrs.
  
  WARNING: Negative pressures at 0:00:00 hrs.
  
  WARNING: Negative pressures at 0:00:00 hrs.
  
     0:00:00: System ill-conditioned at node 9
     0:00:00: Reservoir 1 is emptying
   
  System Error 110: cannot solve network hydraulic equations.
  WARNING: Negative pressures at 0:00:00 hrs.
  
  WARNING: Negative pressures at 0:00:00 hrs.
  
     0:00:00: System ill-conditioned at node 2
     0:00:00: Reservoir 1 is emptying
   
  System Error 110: cannot solve network hydraulic equations.
     0:00:00: System ill-conditioned at node 4
     0:00:00: Reservoir 1 is emptying
   
  System Error 110: cannot solve network hydraulic equations.
     0:00:00: System ill-conditioned at node 10
     0:00:00: Reservoir 1 is emptying
   
  System Error 110: cannot solve network hydraulic equations.
     0:00:00: System ill-conditioned at node 9
     0:00:00: Reservoir 1 is emptying
   
  System Error 110: cannot solve network hydraulic equations.
  WARNING: Negative pressures at 0:00:00 hrs.
  
  WARNING: Negative pressures at 0:00:00 hrs.
  
  WARNING: Negative pressures at 0:00:00 hrs.
  
     0:00:00: System ill-conditioned at node 5
     0:00:00: Reservoir 1 is emptying
   
  System Error 110: cannot solve network hydraulic equations.
  WARNING: Negative pressures at 0:00:00 hrs.
  
     0:00:00: System ill-conditioned at node 4
     0:00:00: Reservoir 1 is emptying
   
  System Error 110: cannot solve network hydraulic equations.
     0:00:00: System ill-conditioned at node 9
     0:00:00: Reservoir 1 is emptying
   
  System Error 110: cannot solve network hydraulic equations.
     0:00:00: System ill-conditioned at node 18
     0:00:00: Reservoir 1 is emptying
   
  System Error 110: cannot solve network hydraulic equations.
     0:00:00: System ill-conditioned at node 12
     0:00:00: Reservoir 1 is emptying
   
  System Error 110: cannot solve network hydraulic equations.
     0:00:00: System ill-conditioned at node 5
     0:00:00: Reservoir 1 is emptying
   
  System Error 110: cannot solve network hydraulic equations.
     0:00:00: System ill-conditioned at node 18
     0:00:00: Reservoir 1 is emptying
   
  System Error 110: cannot solve network hydraulic equations.
  WARNING: Negative pressures at 0:00:00 hrs.
  
     0:00:00: System ill-conditioned at node 18
     0:00:00: Reservoir 1 is emptying
   
  System Error 110: cannot solve network hydraulic equations.
     0:00:00: System ill-conditioned at node 8
     0:00:00: Reservoir 1 is emptying
   
  System Error 110: cannot solve network hydraulic equations.
  WARNING: Negative pressures at 0:00:00 hrs.
  
     0:00:00: System ill-conditioned at node 5
     0:00:00: Reservoir 1 is emptying
   
  System Error 110: cannot solve network hydraulic equations.
     0:00:00: System ill-conditioned at node 5
     0:00:00: Reservoir 1 is emptying
   
  System Error 110: cannot solve network hydraulic equations.
     0:00:00: System ill-conditioned at node 18
     0:00:00: Reservoir 1 is emptying
   
  System Error 110: cannot solve network hydraulic equations.
     0:00:00: System ill-conditioned at node 9
     0:00:00: Reservoir 1 is emptying
   
  System Error 110: cannot solve network hydraulic equations.
  WARNING: Negative pressures at 0:00:00 hrs.
  
  WARNING: Negative pressures at 0:00:00 hrs.
  
  WARNING: Negative pressures at 0:00:00 hrs.
  
  WARNING: Negative pressures at 0:00:00 hrs.
  
  WARNING: Negative pressures at 0:00:00 hrs.
  
  WARNING: Negative pressures at 0:00:00 hrs.
  
  WARNING: Negative pressures at 0:00:00 hrs.
  
  WARNING: Negative pressures at 0:00:00 hrs.
  
  WARNING: Negative pressures at 0:00:00 hrs.
  
  WARNING: Negative pressures at 0:00:00 hrs.
  
     0:00:00: System ill-conditioned at node 4
     0:00:00: Reservoir 1 is emptying
   
  System Error 110: cannot solve network hydraulic equations.
     0:00:00: System ill-conditioned at node 10
     0:00:00: Reservoir 1 is emptying
   
  System Error 110: cannot solve network hydraulic equations.
  WARNING: Negative pressures at 0:00:00 hrs.
  
     0:00:00: System ill-conditioned at node 5
     0:00:00: Reservoir 1 is emptying
   
  System Error 110: cannot solve network hydraulic equations.
  WARNING: Negative pressures at 0:00:00 hrs.
  
  WARNING: Negative pressures at 0:00:00 hrs.
  
     0:00:00: System ill-conditioned at node 9
     0:00:00: Reservoir 1 is emptying
   
  System Error 110: cannot solve network hydraulic equations.
  WARNING: Negative pressures at 0:00:00 hrs.
  
  WARNING: Negative pressures at 0:00:00 hrs.
  
  WARNING: Negative pressures at 0:00:00 hrs.
  
     0:00:00: System ill-conditioned at node 18
     0:00:00: Reservoir 1 is emptying
   
  System Error 110: cannot solve network hydraulic equations.
     0:00:00: System ill-conditioned at node 9
     0:00:00: Reservoir 1 is emptying
   
  System Error 110: cannot solve network hydraulic equations.
     0:00:00: System ill-conditioned at node 12
     0:00:00: Reservoir 1 is emptying
   
  System Error 110: cannot solve network hydraulic equations.
     0:00:00: System ill-conditioned at node 9
     0:00:00: Reservoir 1 is emptying
   
  System Error 110: cannot solve network hydraulic equations.
  WARNING: Negative pressures at 0:00:00 hrs.
  
  WARNING: Negative pressures at 0:00:00 hrs.
  
  WARNING: Negative pressures at 0:00:00 hrs.
  
  WARNING: Negative pressures at 0:00:00 hrs.
  
  WARNING: Negative pressures at 0:00:00 hrs.
  
     0:00:00: System ill-conditioned at node 4
     0:00:00: Reservoir 1 is emptying
   
  System Error 110: cannot solve network hydraulic equations.
  WARNING: Negative pressures at 0:00:00 hrs.
  
  WARNING: Negative pressures at 0:00:00 hrs.
  
  WARNING: Negative pressures at 0:00:00 hrs.
  
  WARNING: Negative pressures at 0:00:00 hrs.
  
  WARNING: Negative pressures at 0:00:00 hrs.
  
  WARNING: Negative pressures at 0:00:00 hrs.
  
  WARNING: Negative pressures at 0:00:00 hrs.
  
     0:00:00: System ill-conditioned at node 7
     0:00:00: Reservoir 1 is emptying
   
  System Error 110: cannot solve network hydraulic equations.
  WARNING: Negative pressures at 0:00:00 hrs.
  
     0:00:00: System ill-conditioned at node 18
     0:00:00: Reservoir 1 is emptying
   
  System Error 110: cannot solve network hydraulic equations.
     0:00:00: System ill-conditioned at node 5
     0:00:00: Reservoir 1 is emptying
   
  System Error 110: cannot solve network hydraulic equations.
  WARNING: Negative pressures at 0:00:00 hrs.
  
  WARNING: Negative pressures at 0:00:00 hrs.
  
  WARNING: Negative pressures at 0:00:00 hrs.
  
  WARNING: Negative pressures at 0:00:00 hrs.
  
     0:00:00: System ill-conditioned at node 9
     0:00:00: Reservoir 1 is emptying
   
  System Error 110: cannot solve network hydraulic equations.
     0:00:00: System ill-conditioned at node 9
     0:00:00: Reservoir 1 is emptying
   
  System Error 110: cannot solve network hydraulic equations.
  WARNING: Negative pressures at 0:00:00 hrs.
  
  WARNING: Negative pressures at 0:00:00 hrs.
  
  WARNING: Negative pressures at 0:00:00 hrs.
  
  WARNING: Negative pressures at 0:00:00 hrs.
  
     0:00:00: System ill-conditioned at node 15
     0:00:00: Reservoir 1 is emptying
   
  System Error 110: cannot solve network hydraulic equations.
  WARNING: Negative pressures at 0:00:00 hrs.
  
     0:00:00: System ill-conditioned at node 18
     0:00:00: Reservoir 1 is emptying
   
  System Error 110: cannot solve network hydraulic equations.
     0:00:00: System ill-conditioned at node 5
     0:00:00: Reservoir 1 is emptying
   
  System Error 110: cannot solve network hydraulic equations.
  WARNING: Negative pressures at 0:00:00 hrs.
  
  WARNING: Negative pressures at 0:00:00 hrs.
  
  WARNING: Negative pressures at 0:00:00 hrs.
  
     0:00:00: System ill-conditioned at node 9
     0:00:00: Reservoir 1 is emptying
   
  System Error 110: cannot solve network hydraulic equations.
     0:00:00: System ill-conditioned at node 18
     0:00:00: Reservoir 1 is emptying
   
  System Error 110: cannot solve network hydraulic equations.
  WARNING: Negative pressures at 0:00:00 hrs.
  
  WARNING: Negative pressures at 0:00:00 hrs.
  
     0:00:00: System ill-conditioned at node 4
     0:00:00: Reservoir 1 is emptying
   
  System Error 110: cannot solve network hydraulic equations.
  WARNING: Negative pressures at 0:00:00 hrs.
  
     0:00:00: System ill-conditioned at node 18
     0:00:00: Reservoir 1 is emptying
   
  System Error 110: cannot solve network hydraulic equations.
  WARNING: Negative pressures at 0:00:00 hrs.
  
     0:00:00: System ill-conditioned at node 18
     0:00:00: Reservoir 1 is emptying
   
  System Error 110: cannot solve network hydraulic equations.
  WARNING: Negative pressures at 0:00:00 hrs.
  
  WARNING: Negative pressures at 0:00:00 hrs.
  
  WARNING: Negative pressures at 0:00:00 hrs.
  
  WARNING: Negative pressures at 0:00:00 hrs.
  
  WARNING: Negative pressures at 0:00:00 hrs.
  
     0:00:00: System ill-conditioned at node 4
     0:00:00: Reservoir 1 is emptying
   
  System Error 110: cannot solve network hydraulic equations.
  WARNING: Negative pressures at 0:00:00 hrs.
  
     0:00:00: System ill-conditioned at node 4
     0:00:00: Reservoir 1 is emptying
   
  System Error 110: cannot solve network hydraulic equations.
     0:00:00: System ill-conditioned at node 9
     0:00:00: Reservoir 1 is emptying
   
  System Error 110: cannot solve network hydraulic equations.
     0:00:00: System ill-conditioned at node 4
     0:00:00: Reservoir 1 is emptying
   
  System Error 110: cannot solve network hydraulic equations.
  WARNING: Negative pressures at 0:00:00 hrs.
  
     0:00:00: System ill-conditioned at node 18
     0:00:00: Reservoir 1 is emptying
   
  System Error 110: cannot solve network hydraulic equations.
     0:00:00: System ill-conditioned at node 18
     0:00:00: Reservoir 1 is emptying
   
  System Error 110: cannot solve network hydraulic equations.
  WARNING: Negative pressures at 0:00:00 hrs.
  
     0:00:00: System ill-conditioned at node 18
     0:00:00: Reservoir 1 is emptying
   
  System Error 110: cannot solve network hydraulic equations.
  WARNING: Negative pressures at 0:00:00 hrs.
  
  WARNING: Negative pressures at 0:00:00 hrs.
  
  WARNING: Negative pressures at 0:00:00 hrs.
  
     0:00:00: System ill-conditioned at node 9
     0:00:00: Reservoir 1 is emptying
   
  System Error 110: cannot solve network hydraulic equations.
  WARNING: Negative pressures at 0:00:00 hrs.
  
  WARNING: Negative pressures at 0:00:00 hrs.
  
     0:00:00: System ill-conditioned at node 18
     0:00:00: Reservoir 1 is emptying
   
  System Error 110: cannot solve network hydraulic equations.
  WARNING: Negative pressures at 0:00:00 hrs.
  
     0:00:00: System ill-conditioned at node 9
     0:00:00: Reservoir 1 is emptying
   
  System Error 110: cannot solve network hydraulic equations.
  WARNING: Negative pressures at 0:00:00 hrs.
  
     0:00:00: System ill-conditioned at node 18
     0:00:00: Reservoir 1 is emptying
   
  System Error 110: cannot solve network hydraulic equations.
     0:00:00: System ill-conditioned at node 14
     0:00:00: Reservoir 1 is emptying
   
  System Error 110: cannot solve network hydraulic equations.
     0:00:00: System ill-conditioned at node 5
     0:00:00: Reservoir 1 is emptying
   
  System Error 110: cannot solve network hydraulic equations.
  WARNING: Negative pressures at 0:00:00 hrs.
  
     0:00:00: System ill-conditioned at node 18
     0:00:00: Reservoir 1 is emptying
   
  System Error 110: cannot solve network hydraulic equations.
  WARNING: Negative pressures at 0:00:00 hrs.
  
     0:00:00: System ill-conditioned at node 9
     0:00:00: Reservoir 1 is emptying
   
  System Error 110: cannot solve network hydraulic equations.
     0:00:00: System ill-conditioned at node 2
     0:00:00: Reservoir 1 is emptying
   
  System Error 110: cannot solve network hydraulic equations.
  WARNING: Negative pressures at 0:00:00 hrs.
  
  WARNING: Negative pressures at 0:00:00 hrs.
  
  WARNING: Negative pressures at 0:00:00 hrs.
  
  WARNING: Negative pressures at 0:00:00 hrs.
  
     0:00:00: System ill-conditioned at node 10
     0:00:00: Reservoir 1 is emptying
   
  System Error 110: cannot solve network hydraulic equations.
  WARNING: Negative pressures at 0:00:00 hrs.
  
     0:00:00: System ill-conditioned at node 18
     0:00:00: Reservoir 1 is emptying
   
  System Error 110: cannot solve network hydraulic equations.
     0:00:00: System ill-conditioned at node 12
     0:00:00: Reservoir 1 is emptying
   
  System Error 110: cannot solve network hydraulic equations.
  WARNING: Negative pressures at 0:00:00 hrs.
  
  WARNING: Negative pressures at 0:00:00 hrs.
  
  WARNING: Negative pressures at 0:00:00 hrs.
  
  WARNING: Negative pressures at 0:00:00 hrs.
  
  WARNING: Negative pressures at 0:00:00 hrs.
  
  WARNING: Negative pressures at 0:00:00 hrs.
  
     0:00:00: System ill-conditioned at node 10
     0:00:00: Reservoir 1 is emptying
   
  System Error 110: cannot solve network hydraulic equations.
  WARNING: Negative pressures at 0:00:00 hrs.
  
  WARNING: Negative pressures at 0:00:00 hrs.
  
  WARNING: Negative pressures at 0:00:00 hrs.
  
  WARNING: Negative pressures at 0:00:00 hrs.
  
  WARNING: Negative pressures at 0:00:00 hrs.
  
     0:00:00: System ill-conditioned at node 18
     0:00:00: Reservoir 1 is emptying
   
  System Error 110: cannot solve network hydraulic equations.
  WARNING: Negative pressures at 0:00:00 hrs.
  
  WARNING: Negative pressures at 0:00:00 hrs.
  
  WARNING: Negative pressures at 0:00:00 hrs.
  
     0:00:00: System ill-conditioned at node 18
     0:00:00: Reservoir 1 is emptying
   
  System Error 110: cannot solve network hydraulic equations.
     0:00:00: System ill-conditioned at node 10
     0:00:00: Reservoir 1 is emptying
   
  System Error 110: cannot solve network hydraulic equations.
  WARNING: Negative pressures at 0:00:00 hrs.
  
     0:00:00: System ill-conditioned at node 2
     0:00:00: Reservoir 1 is emptying
   
  System Error 110: cannot solve network hydraulic equations.
  WARNING: Negative pressures at 0:00:00 hrs.
  
  WARNING: Negative pressures at 0:00:00 hrs.
  
  WARNING: Negative pressures at 0:00:00 hrs.
  
  WARNING: Negative pressures at 0:00:00 hrs.
  
     0:00:00: System ill-conditioned at node 18
     0:00:00: Reservoir 1 is emptying
   
  System Error 110: cannot solve network hydraulic equations.
  WARNING: Negative pressures at 0:00:00 hrs.
  
  WARNING: Negative pressures at 0:00:00 hrs.
  
     0:00:00: System ill-conditioned at node 9
     0:00:00: Reservoir 1 is emptying
   
  System Error 110: cannot solve network hydraulic equations.
     0:00:00: System ill-conditioned at node 4
     0:00:00: Reservoir 1 is emptying
   
  System Error 110: cannot solve network hydraulic equations.
  WARNING: Negative pressures at 0:00:00 hrs.
  
     0:00:00: System ill-conditioned at node 9
     0:00:00: Reservoir 1 is emptying
   
  System Error 110: cannot solve network hydraulic equations.
     0:00:00: System ill-conditioned at node 20
     0:00:00: Reservoir 1 is emptying
   
  System Error 110: cannot solve network hydraulic equations.
  WARNING: Negative pressures at 0:00:00 hrs.
  
     0:00:00: System ill-conditioned at node 12
     0:00:00: Reservoir 1 is emptying
   
  System Error 110: cannot solve network hydraulic equations.
  WARNING: Negative pressures at 0:00:00 hrs.
  
  WARNING: Negative pressures at 0:00:00 hrs.
  
  WARNING: Negative pressures at 0:00:00 hrs.
  
  WARNING: Negative pressures at 0:00:00 hrs.
  
     0:00:00: System ill-conditioned at node 4
     0:00:00: Reservoir 1 is emptying
   
  System Error 110: cannot solve network hydraulic equations.
  WARNING: Negative pressures at 0:00:00 hrs.
  
  WARNING: Negative pressures at 0:00:00 hrs.
  
  WARNING: Negative pressures at 0:00:00 hrs.
  
  WARNING: Negative pressures at 0:00:00 hrs.
  
  WARNING: Negative pressures at 0:00:00 hrs.
  
     0:00:00: System ill-conditioned at node 10
     0:00:00: Reservoir 1 is emptying
   
  System Error 110: cannot solve network hydraulic equations.
  WARNING: Negative pressures at 0:00:00 hrs.
  
     0:00:00: System ill-conditioned at node 18
     0:00:00: Reservoir 1 is emptying
   
  System Error 110: cannot solve network hydraulic equations.
     0:00:00: System ill-conditioned at node 9
     0:00:00: Reservoir 1 is emptying
   
  System Error 110: cannot solve network hydraulic equations.
  WARNING: Negative pressures at 0:00:00 hrs.
  
  WARNING: Negative pressures at 0:00:00 hrs.
  
  WARNING: Negative pressures at 0:00:00 hrs.
  
  WARNING: Negative pressures at 0:00:00 hrs.
  
     0:00:00: System ill-conditioned at node 5
     0:00:00: Reservoir 1 is emptying
   
  System Error 110: cannot solve network hydraulic equations.
  WARNING: Negative pressures at 0:00:00 hrs.
  
  WARNING: Negative pressures at 0:00:00 hrs.
  
  WARNING: Negative pressures at 0:00:00 hrs.
  
     0:00:00: System ill-conditioned at node 10
     0:00:00: Reservoir 1 is emptying
   
  System Error 110: cannot solve network hydraulic equations.
  WARNING: Negative pressures at 0:00:00 hrs.
  
  WARNING: Negative pressures at 0:00:00 hrs.
  
     0:00:00: System ill-conditioned at node 2
     0:00:00: Reservoir 1 is emptying
   
  System Error 110: cannot solve network hydraulic equations.
  WARNING: Negative pressures at 0:00:00 hrs.
  
  WARNING: Negative pressures at 0:00:00 hrs.
  
  WARNING: Negative pressures at 0:00:00 hrs.
  
     0:00:00: System ill-conditioned at node 5
     0:00:00: Reservoir 1 is emptying
   
  System Error 110: cannot solve network hydraulic equations.
  WARNING: Negative pressures at 0:00:00 hrs.
  
  WARNING: Negative pressures at 0:00:00 hrs.
  
  WARNING: Negative pressures at 0:00:00 hrs.
  
     0:00:00: System ill-conditioned at node 20
     0:00:00: Reservoir 1 is emptying
   
  System Error 110: cannot solve network hydraulic equations.
  WARNING: Negative pressures at 0:00:00 hrs.
  
  WARNING: Negative pressures at 0:00:00 hrs.
  
     0:00:00: System ill-conditioned at node 18
     0:00:00: Reservoir 1 is emptying
   
  System Error 110: cannot solve network hydraulic equations.
     0:00:00: System ill-conditioned at node 9
     0:00:00: Reservoir 1 is emptying
   
  System Error 110: cannot solve network hydraulic equations.
  WARNING: Negative pressures at 0:00:00 hrs.
  
  WARNING: Negative pressures at 0:00:00 hrs.
  
     0:00:00: System ill-conditioned at node 8
     0:00:00: Reservoir 1 is emptying
   
  System Error 110: cannot solve network hydraulic equations.
  WARNING: Negative pressures at 0:00:00 hrs.
  
  WARNING: Negative pressures at 0:00:00 hrs.
  
  WARNING: Negative pressures at 0:00:00 hrs.
  
     0:00:00: System ill-conditioned at node 5
     0:00:00: Reservoir 1 is emptying
   
  System Error 110: cannot solve network hydraulic equations.
  WARNING: Negative pressures at 0:00:00 hrs.
  
[...]
  
  WARNING: Negative pressures at 0:00:00 hrs.
  
  WARNING: Negative pressures at 0:00:00 hrs.
  
  WARNING: Negative pressures at 0:00:00 hrs.
  
  WARNING: Negative pressures at 0:00:00 hrs.
  
  WARNING: Negative pressures at 0:00:00 hrs.
  
  WARNING: Negative pressures at 0:00:00 hrs.
  
  WARNING: Negative pressures at 0:00:00 hrs.
  
  WARNING: Negative pressures at 0:00:00 hrs.
  
  WARNING: Negative pressures at 0:00:00 hrs.
  
  WARNING: Negative pressures at 0:00:00 hrs.
  
  WARNING: Negative pressures at 0:00:00 hrs.
  
  WARNING: Negative pressures at 0:00:00 hrs.
  
  WARNING: Negative pressures at 0:00:00 hrs.
  
  WARNING: Negative pressures at 0:00:00 hrs.
  
  WARNING: Negative pressures at 0:00:00 hrs.
  
  WARNING: Negative pressures at 0:00:00 hrs.
  
  WARNING: Negative pressures at 0:00:00 hrs.
  
  WARNING: Negative pressures at 0:00:00 hrs.
  
  WARNING: Negative pressures at 0:00:00 hrs.
  
  WARNING: Negative pressures at 0:00:00 hrs.
  
  WARNING: Negative pressures at 0:00:00 hrs.
  
  WARNING: Negative pressures at 0:00:00 hrs.
  
  WARNING: Negative pressures at 0:00:00 hrs.
  
  WARNING: Negative pressures at 0:00:00 hrs.
  
  WARNING: Negative pressures at 0:00:00 hrs.
  
  WARNING: Negative pressures at 0:00:00 hrs.
  
  WARNING: Negative pressures at 0:00:00 hrs.
  
  WARNING: Negative pressures at 0:00:00 hrs.
  
  WARNING: Negative pressures at 0:00:00 hrs.
  
  WARNING: Negative pressures at 0:00:00 hrs.
  
  WARNING: Negative pressures at 0:00:00 hrs.
  
  WARNING: Negative pressures at 0:00:00 hrs.
  
  WARNING: Negative pressures at 0:00:00 hrs.
  
  WARNING: Negative pressures at 0:00:00 hrs.
  
  WARNING: Negative pressures at 0:00:00 hrs.
  
  WARNING: Negative pressures at 0:00:00 hrs.
  
  WARNING: Negative pressures at 0:00:00 hrs.
  
  WARNING: Negative pressures at 0:00:00 hrs.
  
  WARNING: Negative pressures at 0:00:00 hrs.
  
  WARNING: Negative pressures at 0:00:00 hrs.
  
  WARNING: Negative pressures at 0:00:00 hrs.
  
  WARNING: Negative pressures at 0:00:00 hrs.
  
  WARNING: Negative pressures at 0:00:00 hrs.
  
  WARNING: Negative pressures at 0:00:00 hrs.
  
  WARNING: Negative pressures at 0:00:00 hrs.
  
  WARNING: Negative pressures at 0:00:00 hrs.
  
  WARNING: Negative pressures at 0:00:00 hrs.
  
  WARNING: Negative pressures at 0:00:00 hrs.
  
  WARNING: Negative pressures at 0:00:00 hrs.
  
  WARNING: Negative pressures at 0:00:00 hrs.
  
  WARNING: Negative pressures at 0:00:00 hrs.
  
  WARNING: Negative pressures at 0:00:00 hrs.
  
  WARNING: Negative pressures at 0:00:00 hrs.
  
  WARNING: Negative pressures at 0:00:00 hrs.
  
  WARNING: Negative pressures at 0:00:00 hrs.
  
  WARNING: Negative pressures at 0:00:00 hrs.
  
  WARNING: Negative pressures at 0:00:00 hrs.
  
  WARNING: Negative pressures at 0:00:00 hrs.
  
  WARNING: Negative pressures at 0:00:00 hrs.
  
  WARNING: Negative pressures at 0:00:00 hrs.
  
  WARNING: Negative pressures at 0:00:00 hrs.
  
  WARNING: Negative pressures at 0:00:00 hrs.
  
  WARNING: Negative pressures at 0:00:00 hrs.
  
  WARNING: Negative pressures at 0:00:00 hrs.
  
  WARNING: Negative pressures at 0:00:00 hrs.
  
  WARNING: Negative pressures at 0:00:00 hrs.
  
  WARNING: Negative pressures at 0:00:00 hrs.
  
  WARNING: Negative pressures at 0:00:00 hrs.
  
  WARNING: Negative pressures at 0:00:00 hrs.
  
  WARNING: Negative pressures at 0:00:00 hrs.
  
  WARNING: Negative pressures at 0:00:00 hrs.
  
  WARNING: Negative pressures at 0:00:00 hrs.
  
  WARNING: Negative pressures at 0:00:00 hrs.
  
  WARNING: Negative pressures at 0:00:00 hrs.
  
  WARNING: Negative pressures at 0:00:00 hrs.
  
  WARNING: Negative pressures at 0:00:00 hrs.
  
  WARNING: Negative pressures at 0:00:00 hrs.
  
  WARNING: Negative pressures at 0:00:00 hrs.
  
  WARNING: Negative pressures at 0:00:00 hrs.
  
  WARNING: Negative pressures at 0:00:00 hrs.
  
  WARNING: Negative pressures at 0:00:00 hrs.
  
  WARNING: Negative pressures at 0:00:00 hrs.
  
  WARNING: Negative pressures at 0:00:00 hrs.
  
  WARNING: Negative pressures at 0:00:00 hrs.
  
  WARNING: Negative pressures at 0:00:00 hrs.
  
  WARNING: Negative pressures at 0:00:00 hrs.
  
  WARNING: Negative pressures at 0:00:00 hrs.
  
  WARNING: Negative pressures at 0:00:00 hrs.
  
  WARNING: Negative pressures at 0:00:00 hrs.
  
  WARNING: Negative pressures at 0:00:00 hrs.
  
  WARNING: Negative pressures at 0:00:00 hrs.
  
  WARNING: Negative pressures at 0:00:00 hrs.
  
  WARNING: Negative pressures at 0:00:00 hrs.
  
  WARNING: Negative pressures at 0:00:00 hrs.
  
  WARNING: Negative pressures at 0:00:00 hrs.
  
  WARNING: Negative pressures at 0:00:00 hrs.
  
  WARNING: Negative pressures at 0:00:00 hrs.
  
  WARNING: Negative pressures at 0:00:00 hrs.
  
  WARNING: Negative pressures at 0:00:00 hrs.
  
  WARNING: Negative pressures at 0:00:00 hrs.
  
  WARNING: Negative pressures at 0:00:00 hrs.
  
  WARNING: Negative pressures at 0:00:00 hrs.
  
  WARNING: Negative pressures at 0:00:00 hrs.
  
  WARNING: Negative pressures at 0:00:00 hrs.
  
  WARNING: Negative pressures at 0:00:00 hrs.
  
  WARNING: Negative pressures at 0:00:00 hrs.
  
  WARNING: Negative pressures at 0:00:00 hrs.
  
  WARNING: Negative pressures at 0:00:00 hrs.
  
  WARNING: Negative pressures at 0:00:00 hrs.
  
  WARNING: Negative pressures at 0:00:00 hrs.
  
  WARNING: Negative pressures at 0:00:00 hrs.
  
  WARNING: Negative pressures at 0:00:00 hrs.
  
  WARNING: Negative pressures at 0:00:00 hrs.
  
  WARNING: Negative pressures at 0:00:00 hrs.
  
  WARNING: Negative pressures at 0:00:00 hrs.
  
  WARNING: Negative pressures at 0:00:00 hrs.
  
  WARNING: Negative pressures at 0:00:00 hrs.
  
  WARNING: Negative pressures at 0:00:00 hrs.
  
  WARNING: Negative pressures at 0:00:00 hrs.
  
  WARNING: Negative pressures at 0:00:00 hrs.
  
  WARNING: Negative pressures at 0:00:00 hrs.
  
  WARNING: Negative pressures at 0:00:00 hrs.
  
  WARNING: Negative pressures at 0:00:00 hrs.
  
  WARNING: Negative pressures at 0:00:00 hrs.
  
  WARNING: Negative pressures at 0:00:00 hrs.
  
  WARNING: Negative pressures at 0:00:00 hrs.
  
  WARNING: Negative pressures at 0:00:00 hrs.
  
  WARNING: Negative pressures at 0:00:00 hrs.
  
  WARNING: Negative pressures at 0:00:00 hrs.
  
  WARNING: Negative pressures at 0:00:00 hrs.
  
  WARNING: Negative pressures at 0:00:00 hrs.
  
  WARNING: Negative pressures at 0:00:00 hrs.
  
  WARNING: Negative pressures at 0:00:00 hrs.
  
  WARNING: Negative pressures at 0:00:00 hrs.
  
  WARNING: Negative pressures at 0:00:00 hrs.
  
  WARNING: Negative pressures at 0:00:00 hrs.
  
  WARNING: Negative pressures at 0:00:00 hrs.
  
  WARNING: Negative pressures at 0:00:00 hrs.
  
  WARNING: Negative pressures at 0:00:00 hrs.
  
  WARNING: Negative pressures at 0:00:00 hrs.
  
  WARNING: Negative pressures at 0:00:00 hrs.
  
  WARNING: Negative pressures at 0:00:00 hrs.
  
  WARNING: Negative pressures at 0:00:00 hrs.
  
  WARNING: Negative pressures at 0:00:00 hrs.
  
  WARNING: Negative pressures at 0:00:00 hrs.
  
  WARNING: Negative pressures at 0:00:00 hrs.
  
  WARNING: Negative pressures at 0:00:00 hrs.
  
  WARNING: Negative pressures at 0:00:00 hrs.
  
  WARNING: Negative pressures at 0:00:00 hrs.
  
  WARNING: Negative pressures at 0:00:00 hrs.
  
  WARNING: Negative pressures at 0:00:00 hrs.
  
  WARNING: Negative pressures at 0:00:00 hrs.
  
  WARNING: Negative pressures at 0:00:00 hrs.
  
  WARNING: Negative pressures at 0:00:00 hrs.
  
  WARNING: Negative pressures at 0:00:00 hrs.
  
  WARNING: Negative pressures at 0:00:00 hrs.
  
  WARNING: Negative pressures at 0:00:00 hrs.
  
  WARNING: Negative pressures at 0:00:00 hrs.
  
  WARNING: Negative pressures at 0:00:00 hrs.
  
  WARNING: Negative pressures at 0:00:00 hrs.
  
  WARNING: Negative pressures at 0:00:00 hrs.
  
  WARNING: Negative pressures at 0:00:00 hrs.
  
  WARNING: Negative pressures at 0:00:00 hrs.
  
  WARNING: Negative pressures at 0:00:00 hrs.
  
  WARNING: Negative pressures at 0:00:00 hrs.
  
  WARNING: Negative pressures at 0:00:00 hrs.
  
  WARNING: Negative pressures at 0:00:00 hrs.
  
  WARNING: Negative pressures at 0:00:00 hrs.
  
  WARNING: Negative pressures at 0:00:00 hrs.
  
  WARNING: Negative pressures at 0:00:00 hrs.
  
  WARNING: Negative pressures at 0:00:00 hrs.
  
  WARNING: Negative pressures at 0:00:00 hrs.
  
  WARNING: Negative pressures at 0:00:00 hrs.
  
  WARNING: Negative pressures at 0:00:00 hrs.
  
  WARNING: Negative pressures at 0:00:00 hrs.
  
  WARNING: Negative pressures at 0:00:00 hrs.
  
  WARNING: Negative pressures at 0:00:00 hrs.
  
  WARNING: Negative pressures at 0:00:00 hrs.
  
  WARNING: Negative pressures at 0:00:00 hrs.
  
  WARNING: Negative pressures at 0:00:00 hrs.
  
  WARNING: Negative pressures at 0:00:00 hrs.
  
  WARNING: Negative pressures at 0:00:00 hrs.
  
  WARNING: Negative pressures at 0:00:00 hrs.
  
  WARNING: Negative pressures at 0:00:00 hrs.
  
  WARNING: Negative pressures at 0:00:00 hrs.
  
  WARNING: Negative pressures at 0:00:00 hrs.
  
  WARNING: Negative pressures at 0:00:00 hrs.
  
  WARNING: Negative pressures at 0:00:00 hrs.
  
  WARNING: Negative pressures at 0:00:00 hrs.
  
  WARNING: Negative pressures at 0:00:00 hrs.
  
  WARNING: Negative pressures at 0:00:00 hrs.
  
  WARNING: Negative pressures at 0:00:00 hrs.
  
  WARNING: Negative pressures at 0:00:00 hrs.
  
  WARNING: Negative pressures at 0:00:00 hrs.
  
  WARNING: Negative pressures at 0:00:00 hrs.
  
  WARNING: Negative pressures at 0:00:00 hrs.
  
  WARNING: Negative pressures at 0:00:00 hrs.
  
  WARNING: Negative pressures at 0:00:00 hrs.
  
  WARNING: Negative pressures at 0:00:00 hrs.
  
  WARNING: Negative pressures at 0:00:00 hrs.
  
  WARNING: Negative pressures at 0:00:00 hrs.
  
  WARNING: Negative pressures at 0:00:00 hrs.
  
  WARNING: Negative pressures at 0:00:00 hrs.
  
  WARNING: Negative pressures at 0:00:00 hrs.
  
  WARNING: Negative pressures at 0:00:00 hrs.
  
  WARNING: Negative pressures at 0:00:00 hrs.
  
  WARNING: Negative pressures at 0:00:00 hrs.
  
  WARNING: Negative pressures at 0:00:00 hrs.
  
  WARNING: Negative pressures at 0:00:00 hrs.
  
  WARNING: Negative pressures at 0:00:00 hrs.
  
  WARNING: Negative pressures at 0:00:00 hrs.
  
  WARNING: Negative pressures at 0:00:00 hrs.
  
  WARNING: Negative pressures at 0:00:00 hrs.
  
  WARNING: Negative pressures at 0:00:00 hrs.
  
  WARNING: Negative pressures at 0:00:00 hrs.
  
  WARNING: Negative pressures at 0:00:00 hrs.
  
  WARNING: Negative pressures at 0:00:00 hrs.
  
  WARNING: Negative pressures at 0:00:00 hrs.
  
  WARNING: Negative pressures at 0:00:00 hrs.
  
  WARNING: Negative pressures at 0:00:00 hrs.
  
  WARNING: Negative pressures at 0:00:00 hrs.
  
  WARNING: Negative pressures at 0:00:00 hrs.
  
  WARNING: Negative pressures at 0:00:00 hrs.
  
  WARNING: Negative pressures at 0:00:00 hrs.
  
  WARNING: Negative pressures at 0:00:00 hrs.
  
  WARNING: Negative pressures at 0:00:00 hrs.
  
  WARNING: Negative pressures at 0:00:00 hrs.
  
  WARNING: Negative pressures at 0:00:00 hrs.
  
  WARNING: Negative pressures at 0:00:00 hrs.
  
  WARNING: Negative pressures at 0:00:00 hrs.
  
  WARNING: Negative pressures at 0:00:00 hrs.
  
  WARNING: Negative pressures at 0:00:00 hrs.
  
  WARNING: Negative pressures at 0:00:00 hrs.
  
  WARNING: Negative pressures at 0:00:00 hrs.
  
  WARNING: Negative pressures at 0:00:00 hrs.
  
  WARNING: Negative pressures at 0:00:00 hrs.
  
  WARNING: Negative pressures at 0:00:00 hrs.
  
  WARNING: Negative pressures at 0:00:00 hrs.
  
  WARNING: Negative pressures at 0:00:00 hrs.
  
  WARNING: Negative pressures at 0:00:00 hrs.
  
  WARNING: Negative pressures at 0:00:00 hrs.
  
  WARNING: Negative pressures at 0:00:00 hrs.
  
  WARNING: Negative pressures at 0:00:00 hrs.
  
  WARNING: Negative pressures at 0:00:00 hrs.
  
  WARNING: Negative pressures at 0:00:00 hrs.
  
  WARNING: Negative pressures at 0:00:00 hrs.
  
  WARNING: Negative pressures at 0:00:00 hrs.
  
  WARNING: Negative pressures at 0:00:00 hrs.
  
  WARNING: Negative pressures at 0:00:00 hrs.
  
  WARNING: Negative pressures at 0:00:00 hrs.
  
  WARNING: Negative pressures at 0:00:00 hrs.
  
  WARNING: Negative pressures at 0:00:00 hrs.
  
  WARNING: Negative pressures at 0:00:00 hrs.
  
  WARNING: Negative pressures at 0:00:00 hrs.
  
  WARNING: Negative pressures at 0:00:00 hrs.
  
  WARNING: Negative pressures at 0:00:00 hrs.
  
  WARNING: Negative pressures at 0:00:00 hrs.
  
  WARNING: Negative pressures at 0:00:00 hrs.
  
  WARNING: Negative pressures at 0:00:00 hrs.
  
  WARNING: Negative pressures at 0:00:00 hrs.
  
  WARNING: Negative pressures at 0:00:00 hrs.
  
  WARNING: Negative pressures at 0:00:00 hrs.
  
  WARNING: Negative pressures at 0:00:00 hrs.
  
  WARNING: Negative pressures at 0:00:00 hrs.
  
  WARNING: Negative pressures at 0:00:00 hrs.
  
  WARNING: Negative pressures at 0:00:00 hrs.
  
  WARNING: Negative pressures at 0:00:00 hrs.
  
  WARNING: Negative pressures at 0:00:00 hrs.
  
  WARNING: Negative pressures at 0:00:00 hrs.
  
  WARNING: Negative pressures at 0:00:00 hrs.
  
  WARNING: Negative pressures at 0:00:00 hrs.
  
  WARNING: Negative pressures at 0:00:00 hrs.
  
  WARNING: Negative pressures at 0:00:00 hrs.
  
  WARNING: Negative pressures at 0:00:00 hrs.
  
  WARNING: Negative pressures at 0:00:00 hrs.
  
  WARNING: Negative pressures at 0:00:00 hrs.
  
  WARNING: Negative pressures at 0:00:00 hrs.
  
  WARNING: Negative pressures at 0:00:00 hrs.
  
  WARNING: Negative pressures at 0:00:00 hrs.
  
  WARNING: Negative pressures at 0:00:00 hrs.
  
  WARNING: Negative pressures at 0:00:00 hrs.
  
  WARNING: Negative pressures at 0:00:00 hrs.
  
  WARNING: Negative pressures at 0:00:00 hrs.
  
  WARNING: Negative pressures at 0:00:00 hrs.
  
  WARNING: Negative pressures at 0:00:00 hrs.
  
  WARNING: Negative pressures at 0:00:00 hrs.
  
  WARNING: Negative pressures at 0:00:00 hrs.
  
  WARNING: Negative pressures at 0:00:00 hrs.
  
  WARNING: Negative pressures at 0:00:00 hrs.
  
  WARNING: Negative pressures at 0:00:00 hrs.
  
  WARNING: Negative pressures at 0:00:00 hrs.
  
  WARNING: Negative pressures at 0:00:00 hrs.
  
  WARNING: Negative pressures at 0:00:00 hrs.
  
  WARNING: Negative pressures at 0:00:00 hrs.
  
  WARNING: Negative pressures at 0:00:00 hrs.
  
  WARNING: Negative pressures at 0:00:00 hrs.
  
  WARNING: Negative pressures at 0:00:00 hrs.
  
  WARNING: Negative pressures at 0:00:00 hrs.
  
  WARNING: Negative pressures at 0:00:00 hrs.
  
  WARNING: Negative pressures at 0:00:00 hrs.
  
  WARNING: Negative pressures at 0:00:00 hrs.
  
  WARNING: Negative pressures at 0:00:00 hrs.
  
  WARNING: Negative pressures at 0:00:00 hrs.
  
  WARNING: Negative pressures at 0:00:00 hrs.
  
  WARNING: Negative pressures at 0:00:00 hrs.
  
  WARNING: Negative pressures at 0:00:00 hrs.
  
  WARNING: Negative pressures at 0:00:00 hrs.
  
  WARNING: Negative pressures at 0:00:00 hrs.
  
  WARNING: Negative pressures at 0:00:00 hrs.
  
  WARNING: Negative pressures at 0:00:00 hrs.
  
  WARNING: Negative pressures at 0:00:00 hrs.
  
  WARNING: Negative pressures at 0:00:00 hrs.
  
  WARNING: Negative pressures at 0:00:00 hrs.
  
  WARNING: Negative pressures at 0:00:00 hrs.
  
  WARNING: Negative pressures at 0:00:00 hrs.
  
  WARNING: Negative pressures at 0:00:00 hrs.
  
  WARNING: Negative pressures at 0:00:00 hrs.
  
  WARNING: Negative pressures at 0:00:00 hrs.
  
  WARNING: Negative pressures at 0:00:00 hrs.
  
  WARNING: Negative pressures at 0:00:00 hrs.
  
  WARNING: Negative pressures at 0:00:00 hrs.
  
  WARNING: Negative pressures at 0:00:00 hrs.
  
  WARNING: Negative pressures at 0:00:00 hrs.
  
  WARNING: Negative pressures at 0:00:00 hrs.
  
  WARNING: Negative pressures at 0:00:00 hrs.
  
  WARNING: Negative pressures at 0:00:00 hrs.
  
  WARNING: Negative pressures at 0:00:00 hrs.
  
  WARNING: Negative pressures at 0:00:00 hrs.
  
  WARNING: Negative pressures at 0:00:00 hrs.
  
  WARNING: Negative pressures at 0:00:00 hrs.
  
  WARNING: Negative pressures at 0:00:00 hrs.
  
  WARNING: Negative pressures at 0:00:00 hrs.
  
  WARNING: Negative pressures at 0:00:00 hrs.
  
  WARNING: Negative pressures at 0:00:00 hrs.
  
  WARNING: Negative pressures at 0:00:00 hrs.
  
  WARNING: Negative pressures at 0:00:00 hrs.
  
  WARNING: Negative pressures at 0:00:00 hrs.
  
  WARNING: Negative pressures at 0:00:00 hrs.
  
  WARNING: Negative pressures at 0:00:00 hrs.
  
  WARNING: Negative pressures at 0:00:00 hrs.
  
  WARNING: Negative pressures at 0:00:00 hrs.
  
  WARNING: Negative pressures at 0:00:00 hrs.
  
  WARNING: Negative pressures at 0:00:00 hrs.
  
  WARNING: Negative pressures at 0:00:00 hrs.
  
  WARNING: Negative pressures at 0:00:00 hrs.
  
  WARNING: Negative pressures at 0:00:00 hrs.
  
  WARNING: Negative pressures at 0:00:00 hrs.
  
  WARNING: Negative pressures at 0:00:00 hrs.
  
  WARNING: Negative pressures at 0:00:00 hrs.
  
  WARNING: Negative pressures at 0:00:00 hrs.
  
  WARNING: Negative pressures at 0:00:00 hrs.
  
  WARNING: Negative pressures at 0:00:00 hrs.
  
  WARNING: Negative pressures at 0:00:00 hrs.
  
  WARNING: Negative pressures at 0:00:00 hrs.
  
  WARNING: Negative pressures at 0:00:00 hrs.
  
  WARNING: Negative pressures at 0:00:00 hrs.
  
  WARNING: Negative pressures at 0:00:00 hrs.
  
  WARNING: Negative pressures at 0:00:00 hrs.
  
  WARNING: Negative pressures at 0:00:00 hrs.
  
  WARNING: Negative pressures at 0:00:00 hrs.
  
  WARNING: Negative pressures at 0:00:00 hrs.
  
  WARNING: Negative pressures at 0:00:00 hrs.
  
  WARNING: Negative pressures at 0:00:00 hrs.
  
  WARNING: Negative pressures at 0:00:00 hrs.
  
  WARNING: Negative pressures at 0:00:00 hrs.
  
  WARNING: Negative pressures at 0:00:00 hrs.
  
  WARNING: Negative pressures at 0:00:00 hrs.
  
  WARNING: Negative pressures at 0:00:00 hrs.
  
  WARNING: Negative pressures at 0:00:00 hrs.
  
  WARNING: Negative pressures at 0:00:00 hrs.
  
  WARNING: Negative pressures at 0:00:00 hrs.
  
  WARNING: Negative pressures at 0:00:00 hrs.
  
  WARNING: Negative pressures at 0:00:00 hrs.
  
  WARNING: Negative pressures at 0:00:00 hrs.
  
  WARNING: Negative pressures at 0:00:00 hrs.
  
  WARNING: Negative pressures at 0:00:00 hrs.
  
  WARNING: Negative pressures at 0:00:00 hrs.
  
  WARNING: Negative pressures at 0:00:00 hrs.
  
  WARNING: Negative pressures at 0:00:00 hrs.
  
  WARNING: Negative pressures at 0:00:00 hrs.
  
  WARNING: Negative pressures at 0:00:00 hrs.
  
  WARNING: Negative pressures at 0:00:00 hrs.
  
  WARNING: Negative pressures at 0:00:00 hrs.
  
  WARNING: Negative pressures at 0:00:00 hrs.
  
  WARNING: Negative pressures at 0:00:00 hrs.
  
  WARNING: Negative pressures at 0:00:00 hrs.
  
  WARNING: Negative pressures at 0:00:00 hrs.
  
  WARNING: Negative pressures at 0:00:00 hrs.
  
  WARNING: Negative pressures at 0:00:00 hrs.
  
  WARNING: Negative pressures at 0:00:00 hrs.
  
  WARNING: Negative pressures at 0:00:00 hrs.
  
  WARNING: Negative pressures at 0:00:00 hrs.
  